RWC.pdb
     RDKit          3D

 32 33  0  0  1  0  0  0  0  0999 V2000
    8.6710  -20.7028   15.0420 N   0  0  0  0  0  0  0  0  0  0  0  0
    9.4907  -21.6125   15.7860 C   0  0  0  0  0  0  0  0  0  0  0  0
    9.9788  -22.6235   15.1590 N   0  0  0  0  0  0  0  0  0  0  0  0
    9.7594  -21.4123   17.1667 N   0  0  0  0  0  0  0  0  0  0  0  0
    9.1183  -20.3305   17.8896 C   0  0  0  0  0  0  0  0  0  0  0  0
    9.8699  -19.0483   17.6765 C   0  0  0  0  0  0  0  0  0  0  0  0
   10.0528  -18.2698   18.9311 C   0  0  0  0  0  0  0  0  0  0  0  0
    8.8567  -18.3037   19.8069 C   0  0  2  0  0  0  0  0  0  0  0  0
    7.6240  -17.9891   19.1835 N   0  0  0  0  0  0  0  0  0  0  0  0
    9.1511  -17.4084   20.9810 C   0  0  0  0  0  0  0  0  0  0  0  0
   10.3260  -17.5691   21.4653 O   0  0  0  0  0  0  0  0  0  0  0  0
   10.5420  -23.3504   15.6071 N   0  0  0  0  0  0  0  0  0  0  0  0
    8.2477  -16.4805   21.5137 C   0  0  2  0  0  0  0  0  0  0  0  0
    8.5923  -15.6389   22.6633 C   0  0  0  0  0  0  0  0  0  0  0  0
    7.5911  -14.5545   22.8411 C   0  0  0  0  0  0  0  0  0  0  0  0
    7.8975  -13.6840   23.9801 C   0  0  0  0  0  0  0  0  0  0  0  0
    8.9921  -12.8139   24.0999 N   0  0  0  0  0  0  0  0  0  0  0  0
    9.0068  -12.1996   25.2682 C   0  0  0  0  0  0  0  0  0  0  0  0
    7.9423  -12.6351   25.9440 C   0  0  0  0  0  0  0  0  0  0  0  0
    7.5067  -12.2776   27.2050 C   0  0  0  0  0  0  0  0  0  0  0  0
    6.3517  -12.8524   27.6842 C   0  0  0  0  0  0  0  0  0  0  0  0
    5.6229  -13.7595   26.9625 C   0  0  0  0  0  0  0  0  0  0  0  0
    6.0655  -14.1094   25.7086 C   0  0  0  0  0  0  0  0  0  0  0  0
    7.2305  -13.5443   25.2004 C   0  0  0  0  0  0  0  0  0  0  0  0
    8.7919  -16.4167   23.8663 O   0  0  0  0  0  0  0  0  0  0  0  0
    7.9587  -17.2822   24.2636 N   0  0  0  0  0  0  0  0  0  0  0  0
    9.9368  -16.2961   24.7278 C   0  0  1  0  0  0  0  0  0  0  0  0
   10.1726  -17.1458   25.8498 C   0  0  0  0  0  0  0  0  0  0  0  0
   11.1458  -18.2624   25.5732 S   0  0  0  0  0  0  0  0  0  0  0  0
   12.6897  -17.7171   24.8458 C   0  0  0  0  0  0  0  0  0  0  0  0
   10.5911  -16.3944   27.0342 O   0  0  0  0  0  0  0  0  0  0  0  0
   10.7308  -17.0057   28.2842 O   0  0  0  0  0  0  0  0  0  0  0  0
  2  1  1  0
  2  3  2  0
  4  2  1  0
  5  4  1  0
  6  5  1  0
  7  6  1  0
  8  7  1  0
  8  9  1  6
 10  8  1  0
 10 11  2  0
 12 10  1  0
 13 12  1  0
 13 14  1  6
 14 15  1  0
 15 16  2  0
 16 17  1  0
 18 17  1  0
 19 18  2  0
 20 19  1  0
 21 22  1  0
 21 20  2  0
 22 23  2  0
 23 15  1  0
 23 18  1  0
 24 13  1  0
 25 24  2  0
 26 24  1  0
 27 28  1  1
 27 26  1  0
 28 29  1  0
 30 27  1  0
 31 30  1  0
 32 30  2  0
M  END
$$$$
