RWC.pdb
     RDKit          3D

 32 33  0  0  1  0  0  0  0  0999 V2000
    8.2780  -14.8312   16.8495 N   0  0  0  0  0  0  0  0  0  0  0  0
    8.0094  -13.7288   17.7246 C   0  0  0  0  0  0  0  0  0  0  0  0
    8.5408  -12.5945   17.4340 N   0  0  0  0  0  0  0  0  0  0  0  0
    7.1869  -13.8751   18.8738 N   0  0  0  0  0  0  0  0  0  0  0  0
    7.6665  -13.4571   20.1774 C   0  0  0  0  0  0  0  0  0  0  0  0
    8.5510  -14.5168   20.7680 C   0  0  0  0  0  0  0  0  0  0  0  0
    7.7853  -15.6614   21.3313 C   0  0  0  0  0  0  0  0  0  0  0  0
    8.6615  -16.7124   21.9025 C   0  0  2  0  0  0  0  0  0  0  0  0
    8.0407  -17.9573   22.1708 N   0  0  0  0  0  0  0  0  0  0  0  0
    9.3124  -16.1203   23.1241 C   0  0  0  0  0  0  0  0  0  0  0  0
   10.0956  -15.1409   22.8630 O   0  0  0  0  0  0  0  0  0  0  0  0
    8.4970  -11.7750   18.0447 N   0  0  0  0  0  0  0  0  0  0  0  0
    9.1010  -16.5753   24.4315 C   0  0  1  0  0  0  0  0  0  0  0  0
    9.8701  -16.0535   25.5650 C   0  0  0  0  0  0  0  0  0  0  0  0
    8.9720  -15.7196   26.7017 C   0  0  0  0  0  0  0  0  0  0  0  0
    7.7689  -14.9974   26.2777 C   0  0  0  0  0  0  0  0  0  0  0  0
    6.5706  -15.5630   25.8150 N   0  0  0  0  0  0  0  0  0  0  0  0
    5.6914  -14.6403   25.4714 C   0  0  0  0  0  0  0  0  0  0  0  0
    6.2692  -13.4585   25.6927 C   0  0  0  0  0  0  0  0  0  0  0  0
    5.7530  -12.1903   25.5109 C   0  0  0  0  0  0  0  0  0  0  0  0
    6.5421  -11.1111   25.8376 C   0  0  0  0  0  0  0  0  0  0  0  0
    7.8114  -11.2465   26.3330 C   0  0  0  0  0  0  0  0  0  0  0  0
    8.3163  -12.5132   26.5096 C   0  0  0  0  0  0  0  0  0  0  0  0
    7.5404  -13.6215   26.1864 C   0  0  0  0  0  0  0  0  0  0  0  0
   10.9466  -16.9409   25.9465 O   0  0  0  0  0  0  0  0  0  0  0  0
   11.7669  -16.6593   26.8681 N   0  0  0  0  0  0  0  0  0  0  0  0
   11.1997  -18.2169   25.3341 C   0  0  1  0  0  0  0  0  0  0  0  0
   12.1960  -19.1290   25.7945 C   0  0  0  0  0  0  0  0  0  0  0  0
   11.6337  -20.3809   26.4165 S   0  0  0  0  0  0  0  0  0  0  0  0
   10.4185  -20.0734   27.6968 C   0  0  0  0  0  0  0  0  0  0  0  0
   13.1561  -19.4752   24.7452 O   0  0  0  0  0  0  0  0  0  0  0  0
   14.2444  -20.3185   24.9902 O   0  0  0  0  0  0  0  0  0  0  0  0
  2  1  1  0
  2  3  2  0
  4  2  1  0
  5  4  1  0
  6  5  1  0
  7  6  1  0
  8  7  1  0
  8  9  1  1
 10  8  1  0
 10 11  2  0
 12 10  1  0
 13 12  1  0
 13 14  1  1
 14 15  1  0
 15 16  2  0
 16 17  1  0
 18 17  1  0
 19 18  2  0
 20 19  1  0
 21 22  1  0
 21 20  2  0
 22 23  2  0
 23 15  1  0
 23 18  1  0
 24 13  1  0
 25 24  2  0
 26 24  1  0
 27 28  1  1
 27 26  1  0
 28 29  1  0
 30 27  1  0
 31 30  1  0
 32 30  2  0
M  END
$$$$
