RWC.pdb
     RDKit          3D

 32 33  0  0  1  0  0  0  0  0999 V2000
    7.6172  -15.3146   16.5831 N   0  0  0  0  0  0  0  0  0  0  0  0
    8.2301  -14.0196   16.6018 C   0  0  0  0  0  0  0  0  0  0  0  0
    8.7193  -13.5763   15.4984 N   0  0  0  0  0  0  0  0  0  0  0  0
    8.2992  -13.2469   17.7921 N   0  0  0  0  0  0  0  0  0  0  0  0
    7.5835  -13.6664   18.9819 C   0  0  0  0  0  0  0  0  0  0  0  0
    8.2193  -14.8966   19.5619 C   0  0  0  0  0  0  0  0  0  0  0  0
    8.9299  -14.6316   20.8420 C   0  0  0  0  0  0  0  0  0  0  0  0
    9.4738  -15.8637   21.4621 C   0  0  2  0  0  0  0  0  0  0  0  0
    8.6885  -17.0328   21.3080 N   0  0  0  0  0  0  0  0  0  0  0  0
    9.7448  -15.5407   22.9074 C   0  0  0  0  0  0  0  0  0  0  0  0
   10.4820  -14.5061   23.0712 O   0  0  0  0  0  0  0  0  0  0  0  0
    9.2231  -12.6896   15.4175 N   0  0  0  0  0  0  0  0  0  0  0  0
    9.2522  -16.2816   23.9888 C   0  0  1  0  0  0  0  0  0  0  0  0
    9.5365  -15.9052   25.3767 C   0  0  0  0  0  0  0  0  0  0  0  0
    8.3749  -16.2090   26.2533 C   0  0  0  0  0  0  0  0  0  0  0  0
    7.2811  -15.2460   26.0956 C   0  0  0  0  0  0  0  0  0  0  0  0
    5.9864  -15.5169   25.6265 N   0  0  0  0  0  0  0  0  0  0  0  0
    5.2477  -14.4248   25.5622 C   0  0  0  0  0  0  0  0  0  0  0  0
    6.0157  -13.4172   25.9795 C   0  0  0  0  0  0  0  0  0  0  0  0
    5.6979  -12.0798   26.1152 C   0  0  0  0  0  0  0  0  0  0  0  0
    6.6634  -11.2248   26.5956 C   0  0  0  0  0  0  0  0  0  0  0  0
    7.9190  -11.6473   26.9418 C   0  0  0  0  0  0  0  0  0  0  0  0
    8.2256  -12.9803   26.8021 C   0  0  0  0  0  0  0  0  0  0  0  0
    7.2688  -13.8661   26.3180 C   0  0  0  0  0  0  0  0  0  0  0  0
   10.7675  -16.4923   25.8582 O   0  0  0  0  0  0  0  0  0  0  0  0
   11.9067  -16.0912   25.4802 N   0  0  0  0  0  0  0  0  0  0  0  0
   10.8333  -17.5752   26.8018 C   0  0  1  0  0  0  0  0  0  0  0  0
   11.8483  -17.6927   27.7981 C   0  0  0  0  0  0  0  0  0  0  0  0
   11.8211  -16.5921   28.8268 S   0  0  0  0  0  0  0  0  0  0  0  0
   11.8166  -14.9429   28.1266 C   0  0  0  0  0  0  0  0  0  0  0  0
   11.8273  -18.9994   28.4574 O   0  0  0  0  0  0  0  0  0  0  0  0
   10.8699  -19.9689   28.1429 O   0  0  0  0  0  0  0  0  0  0  0  0
  2  1  1  0
  2  3  2  0
  4  2  1  0
  5  4  1  0
  6  5  1  0
  7  6  1  0
  8  7  1  0
  8  9  1  1
 10  8  1  0
 10 11  2  0
 12 10  1  0
 13 12  1  0
 13 14  1  1
 14 15  1  0
 15 16  2  0
 16 17  1  0
 18 17  1  0
 19 18  2  0
 20 19  1  0
 21 22  1  0
 21 20  2  0
 22 23  2  0
 23 15  1  0
 23 18  1  0
 24 13  1  0
 25 24  2  0
 26 24  1  0
 27 28  1  1
 27 26  1  0
 28 29  1  0
 30 27  1  0
 31 30  1  0
 32 30  2  0
M  END
$$$$
