RWC.pdb
     RDKit          3D

 32 33  0  0  1  0  0  0  0  0999 V2000
    9.0941  -14.4980   16.0020 N   0  0  0  0  0  0  0  0  0  0  0  0
    8.4581  -13.6621   16.9766 C   0  0  0  0  0  0  0  0  0  0  0  0
    8.2754  -12.4261   16.6729 N   0  0  0  0  0  0  0  0  0  0  0  0
    8.0413  -14.1724   18.2354 N   0  0  0  0  0  0  0  0  0  0  0  0
    8.3098  -15.5523   18.5930 C   0  0  0  0  0  0  0  0  0  0  0  0
    9.7054  -15.6861   19.1299 C   0  0  0  0  0  0  0  0  0  0  0  0
    9.7896  -15.4272   20.5927 C   0  0  0  0  0  0  0  0  0  0  0  0
    9.9679  -16.6674   21.3856 C   0  0  2  0  0  0  0  0  0  0  0  0
    9.0375  -17.7048   21.1297 N   0  0  0  0  0  0  0  0  0  0  0  0
    9.9882  -16.2589   22.8345 C   0  0  0  0  0  0  0  0  0  0  0  0
   10.8170  -15.3161   23.0889 O   0  0  0  0  0  0  0  0  0  0  0  0
    7.8230  -11.7507   17.2939 N   0  0  0  0  0  0  0  0  0  0  0  0
    9.1896  -16.8358   23.8297 C   0  0  1  0  0  0  0  0  0  0  0  0
    9.1562  -16.3072   25.1965 C   0  0  0  0  0  0  0  0  0  0  0  0
    7.8820  -16.6706   25.8707 C   0  0  0  0  0  0  0  0  0  0  0  0
    6.8585  -15.6289   25.7434 C   0  0  0  0  0  0  0  0  0  0  0  0
    5.4786  -15.8248   25.5784 N   0  0  0  0  0  0  0  0  0  0  0  0
    4.8310  -14.6816   25.4522 C   0  0  0  0  0  0  0  0  0  0  0  0
    5.7445  -13.7126   25.5294 C   0  0  0  0  0  0  0  0  0  0  0  0
    5.5673  -12.3439   25.4741 C   0  0  0  0  0  0  0  0  0  0  0  0
    6.6743  -11.5364   25.6037 C   0  0  0  0  0  0  0  0  0  0  0  0
    7.9364  -12.0358   25.7842 C   0  0  0  0  0  0  0  0  0  0  0  0
    8.1022  -13.3997   25.8370 C   0  0  0  0  0  0  0  0  0  0  0  0
    7.0004  -14.2389   25.7078 C   0  0  0  0  0  0  0  0  0  0  0  0
   10.3218  -16.6968   25.9591 O   0  0  0  0  0  0  0  0  0  0  0  0
   11.1296  -17.5860   25.5614 N   0  0  0  0  0  0  0  0  0  0  0  0
   10.6861  -16.1282   27.2285 C   0  0  1  0  0  0  0  0  0  0  0  0
   11.7954  -16.5785   28.0052 C   0  0  0  0  0  0  0  0  0  0  0  0
   12.0395  -15.7616   29.2476 S   0  0  0  0  0  0  0  0  0  0  0  0
   11.1766  -14.1915   29.2661 C   0  0  0  0  0  0  0  0  0  0  0  0
   11.6908  -17.9977   28.3478 O   0  0  0  0  0  0  0  0  0  0  0  0
   10.5619  -18.7546   28.0189 O   0  0  0  0  0  0  0  0  0  0  0  0
  2  1  1  0
  2  3  2  0
  4  2  1  0
  5  4  1  0
  6  5  1  0
  7  6  1  0
  8  7  1  0
  8  9  1  1
 10  8  1  0
 10 11  2  0
 12 10  1  0
 13 12  1  0
 13 14  1  1
 14 15  1  0
 15 16  2  0
 16 17  1  0
 18 17  1  0
 19 18  2  0
 20 19  1  0
 21 22  1  0
 21 20  2  0
 22 23  2  0
 23 15  1  0
 23 18  1  0
 24 13  1  0
 25 24  2  0
 26 24  1  0
 27 28  1  1
 27 26  1  0
 28 29  1  0
 30 27  1  0
 31 30  1  0
 32 30  2  0
M  END
$$$$
