RWC.pdb
     RDKit          3D

 32 33  0  0  1  0  0  0  0  0999 V2000
    8.1447  -13.0380   15.9555 N   0  0  0  0  0  0  0  0  0  0  0  0
    8.5912  -14.3995   15.9520 C   0  0  0  0  0  0  0  0  0  0  0  0
    9.4715  -14.7353   15.0769 N   0  0  0  0  0  0  0  0  0  0  0  0
    8.0851  -15.3504   16.8784 N   0  0  0  0  0  0  0  0  0  0  0  0
    7.3476  -14.9140   18.0487 C   0  0  0  0  0  0  0  0  0  0  0  0
    8.1921  -13.9907   18.8786 C   0  0  0  0  0  0  0  0  0  0  0  0
    8.1066  -14.2815   20.3352 C   0  0  0  0  0  0  0  0  0  0  0  0
    8.9888  -15.3987   20.7501 C   0  0  2  0  0  0  0  0  0  0  0  0
    8.5139  -16.7021   20.4622 N   0  0  0  0  0  0  0  0  0  0  0  0
    9.2790  -15.2040   22.2144 C   0  0  0  0  0  0  0  0  0  0  0  0
    9.8250  -14.0767   22.4825 O   0  0  0  0  0  0  0  0  0  0  0  0
    9.8940  -15.6655   15.0260 N   0  0  0  0  0  0  0  0  0  0  0  0
    8.9909  -16.1461   23.2096 C   0  0  1  0  0  0  0  0  0  0  0  0
    9.1373  -15.8343   24.6344 C   0  0  0  0  0  0  0  0  0  0  0  0
    7.9866  -16.3665   25.4108 C   0  0  0  0  0  0  0  0  0  0  0  0
    6.9927  -15.3360   25.7257 C   0  0  0  0  0  0  0  0  0  0  0  0
    5.6314  -15.5397   25.9994 N   0  0  0  0  0  0  0  0  0  0  0  0
    4.9948  -14.4015   26.2033 C   0  0  0  0  0  0  0  0  0  0  0  0
    5.8980  -13.4283   26.0743 C   0  0  0  0  0  0  0  0  0  0  0  0
    5.7327  -12.0642   26.2143 C   0  0  0  0  0  0  0  0  0  0  0  0
    6.8335  -11.2534   26.0560 C   0  0  0  0  0  0  0  0  0  0  0  0
    8.0783  -11.7452   25.7669 C   0  0  0  0  0  0  0  0  0  0  0  0
    8.2320  -13.1045   25.6288 C   0  0  0  0  0  0  0  0  0  0  0  0
    7.1359  -13.9468   25.7827 C   0  0  0  0  0  0  0  0  0  0  0  0
   10.4131  -16.2699   25.1583 O   0  0  0  0  0  0  0  0  0  0  0  0
   11.1560  -17.0912   24.5459 N   0  0  0  0  0  0  0  0  0  0  0  0
   10.9690  -15.8270   26.4082 C   0  0  2  0  0  0  0  0  0  0  0  0
   12.0896  -16.4477   27.0371 C   0  0  0  0  0  0  0  0  0  0  0  0
   12.4904  -15.8035   28.3389 S   0  0  0  0  0  0  0  0  0  0  0  0
   11.1196  -15.5015   29.4525 C   0  0  0  0  0  0  0  0  0  0  0  0
   11.8912  -17.8855   27.2264 O   0  0  0  0  0  0  0  0  0  0  0  0
   10.6442  -18.4892   27.0366 O   0  0  0  0  0  0  0  0  0  0  0  0
  2  1  1  0
  2  3  2  0
  4  2  1  0
  5  4  1  0
  6  5  1  0
  7  6  1  0
  8  7  1  0
  8  9  1  1
 10  8  1  0
 10 11  2  0
 12 10  1  0
 13 12  1  0
 13 14  1  1
 14 15  1  0
 15 16  2  0
 16 17  1  0
 18 17  1  0
 19 18  2  0
 20 19  1  0
 21 22  1  0
 21 20  2  0
 22 23  2  0
 23 15  1  0
 23 18  1  0
 24 13  1  0
 25 24  2  0
 26 24  1  0
 27 28  1  1
 27 26  1  0
 28 29  1  0
 30 27  1  0
 31 30  1  0
 32 30  2  0
M  END
$$$$
