RWC.pdb
     RDKit          3D

 32 33  0  0  1  0  0  0  0  0999 V2000
    7.6277  -14.4701   15.6351 N   0  0  0  0  0  0  0  0  0  0  0  0
    8.4966  -14.1697   16.7342 C   0  0  0  0  0  0  0  0  0  0  0  0
    8.6323  -12.9347   17.0657 N   0  0  0  0  0  0  0  0  0  0  0  0
    9.1868  -15.1931   17.4376 N   0  0  0  0  0  0  0  0  0  0  0  0
    8.4816  -16.3778   17.8880 C   0  0  0  0  0  0  0  0  0  0  0  0
    7.8537  -16.1284   19.2288 C   0  0  0  0  0  0  0  0  0  0  0  0
    7.2194  -17.3445   19.8055 C   0  0  0  0  0  0  0  0  0  0  0  0
    6.5302  -17.0774   21.0910 C   0  0  2  0  0  0  0  0  0  0  0  0
    5.3010  -16.3787   21.0008 N   0  0  0  0  0  0  0  0  0  0  0  0
    7.5236  -16.3789   21.9808 C   0  0  0  0  0  0  0  0  0  0  0  0
    7.7394  -15.1605   21.6495 O   0  0  0  0  0  0  0  0  0  0  0  0
    9.2215  -12.6170   17.8392 N   0  0  0  0  0  0  0  0  0  0  0  0
    8.1651  -16.9776   23.0721 C   0  0  1  0  0  0  0  0  0  0  0  0
    9.1852  -16.2704   23.8519 C   0  0  0  0  0  0  0  0  0  0  0  0
    8.8516  -16.2948   25.3004 C   0  0  0  0  0  0  0  0  0  0  0  0
    7.7030  -15.4457   25.6299 C   0  0  0  0  0  0  0  0  0  0  0  0
    6.3553  -15.8355   25.6673 N   0  0  0  0  0  0  0  0  0  0  0  0
    5.5584  -14.8241   25.9575 C   0  0  0  0  0  0  0  0  0  0  0  0
    6.3391  -13.7546   26.1188 C   0  0  0  0  0  0  0  0  0  0  0  0
    5.9850  -12.4614   26.4509 C   0  0  0  0  0  0  0  0  0  0  0  0
    6.9845  -11.5250   26.5861 C   0  0  0  0  0  0  0  0  0  0  0  0
    8.3081  -11.8253   26.4048 C   0  0  0  0  0  0  0  0  0  0  0  0
    8.6500  -13.1152   26.0735 C   0  0  0  0  0  0  0  0  0  0  0  0
    7.6596  -14.0811   25.9296 C   0  0  0  0  0  0  0  0  0  0  0  0
   10.5174  -16.7624   23.5778 O   0  0  0  0  0  0  0  0  0  0  0  0
   10.7694  -17.9920   23.4168 N   0  0  0  0  0  0  0  0  0  0  0  0
   11.6810  -15.9260   23.4595 C   0  0  1  0  0  0  0  0  0  0  0  0
   12.9717  -16.4167   23.0990 C   0  0  0  0  0  0  0  0  0  0  0  0
   13.7122  -15.5284   22.1332 S   0  0  0  0  0  0  0  0  0  0  0  0
   15.3584  -16.1084   21.7282 C   0  0  0  0  0  0  0  0  0  0  0  0
   13.8052  -16.6929   24.2702 O   0  0  0  0  0  0  0  0  0  0  0  0
   15.0165  -17.3840   24.1670 O   0  0  0  0  0  0  0  0  0  0  0  0
  2  1  1  0
  2  3  2  0
  4  2  1  0
  5  4  1  0
  6  5  1  0
  7  6  1  0
  8  7  1  0
  8  9  1  6
 10  8  1  0
 10 11  2  0
 12 10  1  0
 13 12  1  0
 13 14  1  1
 14 15  1  0
 15 16  2  0
 16 17  1  0
 18 17  1  0
 19 18  2  0
 20 19  1  0
 21 22  1  0
 21 20  2  0
 22 23  2  0
 23 15  1  0
 23 18  1  0
 24 13  1  0
 25 24  2  0
 26 24  1  0
 27 28  1  1
 27 26  1  0
 28 29  1  0
 30 27  1  0
 31 30  1  0
 32 30  2  0
M  END
$$$$
