RWC.pdb
     RDKit          3D

 32 33  0  0  1  0  0  0  0  0999 V2000
    7.9586  -12.8889   17.8608 N   0  0  0  0  0  0  0  0  0  0  0  0
    8.1520  -13.7052   16.6992 C   0  0  0  0  0  0  0  0  0  0  0  0
    7.2528  -13.6574   15.7812 N   0  0  0  0  0  0  0  0  0  0  0  0
    9.2931  -14.5400   16.5587 N   0  0  0  0  0  0  0  0  0  0  0  0
   10.2879  -14.6062   17.6121 C   0  0  0  0  0  0  0  0  0  0  0  0
   10.3178  -15.9829   18.2105 C   0  0  0  0  0  0  0  0  0  0  0  0
   11.3427  -16.1267   19.2795 C   0  0  0  0  0  0  0  0  0  0  0  0
   10.9462  -17.0978   20.3276 C   0  0  2  0  0  0  0  0  0  0  0  0
   10.0113  -18.0866   19.9335 N   0  0  0  0  0  0  0  0  0  0  0  0
   10.4686  -16.2941   21.5077 C   0  0  0  0  0  0  0  0  0  0  0  0
   11.3059  -15.4051   21.8941 O   0  0  0  0  0  0  0  0  0  0  0  0
    7.3137  -14.1745   14.9007 N   0  0  0  0  0  0  0  0  0  0  0  0
    9.2337  -16.4782   22.1418 C   0  0  1  0  0  0  0  0  0  0  0  0
    8.9053  -15.8076   23.4032 C   0  0  0  0  0  0  0  0  0  0  0  0
    7.4882  -16.0554   23.7780 C   0  0  0  0  0  0  0  0  0  0  0  0
    7.0533  -15.2380   24.9145 C   0  0  0  0  0  0  0  0  0  0  0  0
    6.4161  -15.6927   26.0794 N   0  0  0  0  0  0  0  0  0  0  0  0
    6.1155  -14.6997   26.8954 C   0  0  0  0  0  0  0  0  0  0  0  0
    6.5372  -13.5790   26.3075 C   0  0  0  0  0  0  0  0  0  0  0  0
    6.4732  -12.2783   26.7678 C   0  0  0  0  0  0  0  0  0  0  0  0
    7.0050  -11.2809   25.9826 C   0  0  0  0  0  0  0  0  0  0  0  0
    7.5914  -11.5281   24.7702 C   0  0  0  0  0  0  0  0  0  0  0  0
    7.6493  -12.8262   24.3207 C   0  0  0  0  0  0  0  0  0  0  0  0
    7.1185  -13.8534   25.0939 C   0  0  0  0  0  0  0  0  0  0  0  0
    9.8305  -16.1532   24.4599 O   0  0  0  0  0  0  0  0  0  0  0  0
   11.0119  -16.5440   24.2296 N   0  0  0  0  0  0  0  0  0  0  0  0
    9.5179  -16.0920   25.8620 C   0  0  1  0  0  0  0  0  0  0  0  0
   10.4843  -16.2823   26.8946 C   0  0  0  0  0  0  0  0  0  0  0  0
   10.8993  -15.0072   27.5818 S   0  0  0  0  0  0  0  0  0  0  0  0
    9.6420  -14.3186   28.6567 C   0  0  0  0  0  0  0  0  0  0  0  0
   10.0492  -17.2694   27.8840 O   0  0  0  0  0  0  0  0  0  0  0  0
   10.9111  -17.7495   28.8751 O   0  0  0  0  0  0  0  0  0  0  0  0
  2  1  1  0
  2  3  2  0
  4  2  1  0
  5  4  1  0
  6  5  1  0
  7  6  1  0
  8  7  1  0
  8  9  1  6
 10  8  1  0
 10 11  2  0
 12 10  1  0
 13 12  1  0
 13 14  1  6
 14 15  1  0
 15 16  2  0
 16 17  1  0
 18 17  1  0
 19 18  2  0
 20 19  1  0
 21 22  1  0
 21 20  2  0
 22 23  2  0
 23 15  1  0
 23 18  1  0
 24 13  1  0
 25 24  2  0
 26 24  1  0
 27 28  1  1
 27 26  1  0
 28 29  1  0
 30 27  1  0
 31 30  1  0
 32 30  2  0
M  END
$$$$
