RWC.pdb
     RDKit          3D

 32 33  0  0  1  0  0  0  0  0999 V2000
    7.6072  -13.1789   15.7836 N   0  0  0  0  0  0  0  0  0  0  0  0
    7.8835  -13.3480   17.1793 C   0  0  0  0  0  0  0  0  0  0  0  0
    7.6404  -12.3550   17.9592 N   0  0  0  0  0  0  0  0  0  0  0  0
    8.4071  -14.5655   17.6914 N   0  0  0  0  0  0  0  0  0  0  0  0
    8.8538  -15.6093   16.7887 C   0  0  0  0  0  0  0  0  0  0  0  0
    9.3260  -16.8019   17.5691 C   0  0  0  0  0  0  0  0  0  0  0  0
   10.3381  -16.4531   18.6024 C   0  0  0  0  0  0  0  0  0  0  0  0
   10.3021  -17.3644   19.7715 C   0  0  2  0  0  0  0  0  0  0  0  0
    9.4054  -18.4571   19.6772 N   0  0  0  0  0  0  0  0  0  0  0  0
   10.0395  -16.5092   20.9824 C   0  0  0  0  0  0  0  0  0  0  0  0
   10.9063  -15.5814   21.1516 O   0  0  0  0  0  0  0  0  0  0  0  0
    7.8134  -12.3704   18.9673 N   0  0  0  0  0  0  0  0  0  0  0  0
    8.9604  -16.6871   21.8569 C   0  0  1  0  0  0  0  0  0  0  0  0
    8.7776  -15.8420   23.0405 C   0  0  0  0  0  0  0  0  0  0  0  0
    7.4296  -15.2151   23.0369 C   0  0  0  0  0  0  0  0  0  0  0  0
    7.0343  -14.7180   24.3581 C   0  0  0  0  0  0  0  0  0  0  0  0
    6.3593  -15.4366   25.3570 N   0  0  0  0  0  0  0  0  0  0  0  0
    6.1118  -14.6908   26.4176 C   0  0  0  0  0  0  0  0  0  0  0  0
    6.6066  -13.4794   26.1587 C   0  0  0  0  0  0  0  0  0  0  0  0
    6.6175  -12.3548   26.9606 C   0  0  0  0  0  0  0  0  0  0  0  0
    7.2167  -11.2140   26.4772 C   0  0  0  0  0  0  0  0  0  0  0  0
    7.7986  -11.1524   25.2392 C   0  0  0  0  0  0  0  0  0  0  0  0
    7.7817  -12.2771   24.4485 C   0  0  0  0  0  0  0  0  0  0  0  0
    7.1819  -13.4433   24.9121 C   0  0  0  0  0  0  0  0  0  0  0  0
    9.0576  -16.5557   24.2670 O   0  0  0  0  0  0  0  0  0  0  0  0
    8.2201  -17.3352   24.8076 N   0  0  0  0  0  0  0  0  0  0  0  0
   10.2945  -16.4616   24.9942 C   0  0  1  0  0  0  0  0  0  0  0  0
   10.6742  -17.3718   26.0256 C   0  0  0  0  0  0  0  0  0  0  0  0
   10.5755  -18.8209   25.6247 S   0  0  0  0  0  0  0  0  0  0  0  0
   10.8087  -19.9677   26.9814 C   0  0  0  0  0  0  0  0  0  0  0  0
   12.0093  -17.0846   26.5526 O   0  0  0  0  0  0  0  0  0  0  0  0
   12.2741  -17.0761   27.9257 O   0  0  0  0  0  0  0  0  0  0  0  0
  2  1  1  0
  2  3  2  0
  4  2  1  0
  5  4  1  0
  6  5  1  0
  7  6  1  0
  8  7  1  0
  8  9  1  6
 10  8  1  0
 10 11  2  0
 12 10  1  0
 13 12  1  0
 13 14  1  1
 14 15  1  0
 15 16  2  0
 16 17  1  0
 18 17  1  0
 19 18  2  0
 20 19  1  0
 21 22  1  0
 21 20  2  0
 22 23  2  0
 23 15  1  0
 23 18  1  0
 24 13  1  0
 25 24  2  0
 26 24  1  0
 27 28  1  1
 27 26  1  0
 28 29  1  0
 30 27  1  0
 31 30  1  0
 32 30  2  0
M  END
$$$$
