RWC.pdb
     RDKit          3D

 32 33  0  0  1  0  0  0  0  0999 V2000
    9.3238  -16.0797   17.2142 N   0  0  0  0  0  0  0  0  0  0  0  0
    8.6290  -15.1326   16.3938 C   0  0  0  0  0  0  0  0  0  0  0  0
    8.3043  -15.4997   15.2049 N   0  0  0  0  0  0  0  0  0  0  0  0
    8.3064  -13.8330   16.8686 N   0  0  0  0  0  0  0  0  0  0  0  0
    8.7361  -13.4058   18.1865 C   0  0  0  0  0  0  0  0  0  0  0  0
    7.7208  -13.8064   19.2175 C   0  0  0  0  0  0  0  0  0  0  0  0
    8.2317  -13.6856   20.6096 C   0  0  0  0  0  0  0  0  0  0  0  0
    9.1047  -14.8185   21.0008 C   0  0  2  0  0  0  0  0  0  0  0  0
    8.6975  -16.0983   20.5495 N   0  0  0  0  0  0  0  0  0  0  0  0
    9.2523  -14.7579   22.4978 C   0  0  0  0  0  0  0  0  0  0  0  0
    9.5947  -13.6025   22.9321 O   0  0  0  0  0  0  0  0  0  0  0  0
    7.9726  -14.8550   14.4833 N   0  0  0  0  0  0  0  0  0  0  0  0
    9.0421  -15.8431   23.3575 C   0  0  1  0  0  0  0  0  0  0  0  0
    9.1387  -15.7053   24.8137 C   0  0  0  0  0  0  0  0  0  0  0  0
    7.9127  -16.2255   25.4744 C   0  0  0  0  0  0  0  0  0  0  0  0
    6.9522  -15.1663   25.7971 C   0  0  0  0  0  0  0  0  0  0  0  0
    5.5648  -15.3110   25.9520 N   0  0  0  0  0  0  0  0  0  0  0  0
    4.9743  -14.1567   26.1996 C   0  0  0  0  0  0  0  0  0  0  0  0
    5.9342  -13.2306   26.2168 C   0  0  0  0  0  0  0  0  0  0  0  0
    5.8296  -11.8739   26.4539 C   0  0  0  0  0  0  0  0  0  0  0  0
    6.9801  -11.1186   26.4435 C   0  0  0  0  0  0  0  0  0  0  0  0
    8.2164  -11.6582   26.2085 C   0  0  0  0  0  0  0  0  0  0  0  0
    8.3096  -13.0096   25.9728 C   0  0  0  0  0  0  0  0  0  0  0  0
    7.1625  -13.7961   25.9765 C   0  0  0  0  0  0  0  0  0  0  0  0
   10.3493  -16.2989   25.3371 O   0  0  0  0  0  0  0  0  0  0  0  0
   11.1099  -17.0263   24.6344 N   0  0  0  0  0  0  0  0  0  0  0  0
   10.8148  -16.1318   26.6872 C   0  0  1  0  0  0  0  0  0  0  0  0
   11.9533  -16.8088   27.2184 C   0  0  0  0  0  0  0  0  0  0  0  0
   12.3793  -16.3101   28.5750 S   0  0  0  0  0  0  0  0  0  0  0  0
   11.5330  -14.8208   29.1004 C   0  0  0  0  0  0  0  0  0  0  0  0
   11.7682  -18.2605   27.2505 O   0  0  0  0  0  0  0  0  0  0  0  0
   12.8293  -19.1337   27.5097 O   0  0  0  0  0  0  0  0  0  0  0  0
  2  1  1  0
  2  3  2  0
  4  2  1  0
  5  4  1  0
  6  5  1  0
  7  6  1  0
  8  7  1  0
  8  9  1  1
 10  8  1  0
 10 11  2  0
 12 10  1  0
 13 12  1  0
 13 14  1  6
 14 15  1  0
 15 16  2  0
 16 17  1  0
 18 17  1  0
 19 18  2  0
 20 19  1  0
 21 22  1  0
 21 20  2  0
 22 23  2  0
 23 15  1  0
 23 18  1  0
 24 13  1  0
 25 24  2  0
 26 24  1  0
 27 28  1  1
 27 26  1  0
 28 29  1  0
 30 27  1  0
 31 30  1  0
 32 30  2  0
M  END
$$$$
