KAV.pdb
     RDKit          3D

 22 21  0  0  1  0  0  0  0  0999 V2000
    7.7161  -13.4687   18.4476 N   0  0  0  0  0  0  0  0  0  0  0  0
    8.5825  -13.9440   19.4851 C   0  0  1  0  0  0  0  0  0  0  0  0
    9.7932  -13.0760   19.5966 C   0  0  0  0  0  0  0  0  0  0  0  0
   11.0335  -13.8040   19.9625 C   0  0  0  0  0  0  0  0  0  0  0  0
   11.7288  -14.5333   18.8682 C   0  0  0  0  0  0  0  0  0  0  0  0
   12.9524  -15.3012   19.3616 C   0  0  0  0  0  0  0  0  0  0  0  0
   13.4267  -16.1459   18.2933 N   0  0  0  0  0  0  0  0  0  0  0  0
    7.8817  -14.1157   20.7829 C   0  0  0  0  0  0  0  0  0  0  0  0
    7.2487  -13.1494   21.2794 O   0  0  0  0  0  0  0  0  0  0  0  0
    6.9850  -16.9470   23.1422 C   0  0  0  0  0  0  0  0  0  0  0  0
    7.2806  -15.4947   22.8137 C   0  0  2  0  0  0  0  0  0  0  0  0
    7.8776  -15.3293   21.5209 N   0  0  0  0  0  0  0  0  0  0  0  0
    8.0945  -14.9349   23.9148 C   0  0  0  0  0  0  0  0  0  0  0  0
    9.3444  -14.9563   23.9521 O   0  0  0  0  0  0  0  0  0  0  0  0
    5.8156  -13.1134   27.0046 C   0  0  0  0  0  0  0  0  0  0  0  0
    7.2149  -12.6657   26.6750 C   0  0  2  0  0  0  0  0  0  0  0  0
    7.1208  -11.5879   25.6164 C   0  0  0  0  0  0  0  0  0  0  0  0
    8.0812  -13.7738   26.1504 C   0  0  2  0  0  0  0  0  0  0  0  0
    7.4050  -14.3357   24.9964 N   0  0  0  0  0  0  0  0  0  0  0  0
    8.2625  -14.8735   27.1282 C   0  0  0  0  0  0  0  0  0  0  0  0
    9.1787  -14.8101   28.1705 O   0  0  0  0  0  0  0  0  0  0  0  0
    7.5842  -15.9494   27.0706 O   0  0  0  0  0  0  0  0  0  0  0  0
  2  1  1  6
  2  8  1  0
  3  4  1  0
  3  2  1  0
  5  6  1  0
  5  4  1  0
  6  7  1  0
  8 12  1  0
  8  9  2  0
 11 10  1  1
 11 13  1  0
 12 11  1  0
 13 14  2  0
 16 17  1  6
 16 15  1  0
 16 18  1  0
 18 19  1  6
 19 13  1  0
 20 21  1  0
 20 18  1  0
 22 20  2  0
M  END
$$$$
