KAV.pdb
     RDKit          3D

 22 21  0  0  1  0  0  0  0  0999 V2000
    8.5758  -16.4243   19.2896 N   0  0  0  0  0  0  0  0  0  0  0  0
    9.0560  -17.0170   20.5025 C   0  0  1  0  0  0  0  0  0  0  0  0
   10.5429  -16.9027   20.5898 C   0  0  0  0  0  0  0  0  0  0  0  0
   11.1000  -15.6900   19.9408 C   0  0  0  0  0  0  0  0  0  0  0  0
   12.5811  -15.5511   19.9416 C   0  0  0  0  0  0  0  0  0  0  0  0
   13.0435  -14.2082   19.3820 C   0  0  0  0  0  0  0  0  0  0  0  0
   14.4788  -14.1314   19.4982 N   0  0  0  0  0  0  0  0  0  0  0  0
    8.3710  -16.4880   21.7090 C   0  0  0  0  0  0  0  0  0  0  0  0
    8.0262  -15.2794   21.7475 O   0  0  0  0  0  0  0  0  0  0  0  0
    6.9620  -17.8951   24.9570 C   0  0  0  0  0  0  0  0  0  0  0  0
    7.4256  -16.7824   24.0343 C   0  0  2  0  0  0  0  0  0  0  0  0
    8.0708  -17.2750   22.8527 N   0  0  0  0  0  0  0  0  0  0  0  0
    8.2677  -15.8570   24.8234 C   0  0  0  0  0  0  0  0  0  0  0  0
    9.5183  -15.8583   24.8163 O   0  0  0  0  0  0  0  0  0  0  0  0
    6.0799  -13.0452   27.1811 C   0  0  0  0  0  0  0  0  0  0  0  0
    7.3763  -12.7042   26.4956 C   0  0  2  0  0  0  0  0  0  0  0  0
    7.0497  -12.2095   25.1029 C   0  0  0  0  0  0  0  0  0  0  0  0
    8.3081  -13.8755   26.3784 C   0  0  2  0  0  0  0  0  0  0  0  0
    7.6062  -14.9082   25.6397 N   0  0  0  0  0  0  0  0  0  0  0  0
    8.6742  -14.4525   27.6942 C   0  0  0  0  0  0  0  0  0  0  0  0
    8.2083  -15.6862   28.1306 O   0  0  0  0  0  0  0  0  0  0  0  0
    9.4430  -13.8470   28.5086 O   0  0  0  0  0  0  0  0  0  0  0  0
  2  1  1  6
  2  8  1  0
  3  4  1  0
  3  2  1  0
  5  6  1  0
  5  4  1  0
  6  7  1  0
  8 12  1  0
  8  9  2  0
 11 10  1  1
 11 13  1  0
 12 11  1  0
 13 14  2  0
 16 17  1  6
 16 15  1  0
 16 18  1  0
 18 19  1  6
 19 13  1  0
 20 21  1  0
 20 18  1  0
 22 20  2  0
M  END
$$$$
