KAV.pdb
     RDKit          3D

 22 21  0  0  1  0  0  0  0  0999 V2000
    6.1073  -15.8656   19.5652 N   0  0  0  0  0  0  0  0  0  0  0  0
    6.9817  -15.0759   20.3807 C   0  0  1  0  0  0  0  0  0  0  0  0
    6.8956  -13.6342   19.9992 C   0  0  0  0  0  0  0  0  0  0  0  0
    7.5422  -13.3068   18.7042 C   0  0  0  0  0  0  0  0  0  0  0  0
    8.9420  -13.7743   18.5180 C   0  0  0  0  0  0  0  0  0  0  0  0
    9.5559  -13.2786   17.2112 C   0  0  0  0  0  0  0  0  0  0  0  0
   10.8991  -13.7936   17.1098 N   0  0  0  0  0  0  0  0  0  0  0  0
    6.7648  -15.2961   21.8331 C   0  0  0  0  0  0  0  0  0  0  0  0
    5.8908  -14.6253   22.4390 O   0  0  0  0  0  0  0  0  0  0  0  0
    7.7415  -17.7784   24.5042 C   0  0  0  0  0  0  0  0  0  0  0  0
    7.3957  -16.3792   24.0276 C   0  0  2  0  0  0  0  0  0  0  0  0
    7.4967  -16.2376   22.6046 N   0  0  0  0  0  0  0  0  0  0  0  0
    8.2382  -15.4214   24.7765 C   0  0  0  0  0  0  0  0  0  0  0  0
    9.4153  -15.1270   24.4731 O   0  0  0  0  0  0  0  0  0  0  0  0
    6.1945  -13.1919   27.7370 C   0  0  0  0  0  0  0  0  0  0  0  0
    7.4823  -12.7478   27.0958 C   0  0  2  0  0  0  0  0  0  0  0  0
    7.1371  -12.0254   25.8113 C   0  0  0  0  0  0  0  0  0  0  0  0
    8.4026  -13.8878   26.7683 C   0  0  2  0  0  0  0  0  0  0  0  0
    7.6667  -14.7994   25.9127 N   0  0  0  0  0  0  0  0  0  0  0  0
    8.8176  -14.6541   27.9678 C   0  0  0  0  0  0  0  0  0  0  0  0
    8.3633  -15.9397   28.2337 O   0  0  0  0  0  0  0  0  0  0  0  0
    9.6210  -14.1761   28.8321 O   0  0  0  0  0  0  0  0  0  0  0  0
  2  1  1  6
  2  8  1  0
  3  4  1  0
  3  2  1  0
  5  6  1  0
  5  4  1  0
  6  7  1  0
  8 12  1  0
  8  9  2  0
 11 10  1  6
 11 13  1  0
 12 11  1  0
 13 14  2  0
 16 17  1  6
 16 15  1  0
 16 18  1  0
 18 19  1  6
 19 13  1  0
 20 21  1  0
 20 18  1  0
 22 20  2  0
M  END
$$$$
