KAV.pdb
     RDKit          3D

 22 21  0  0  1  0  0  0  0  0999 V2000
    7.8536  -17.7887   18.7498 N   0  0  0  0  0  0  0  0  0  0  0  0
    7.1219  -17.0262   19.7175 C   0  0  1  0  0  0  0  0  0  0  0  0
    5.8789  -17.7483   20.1238 C   0  0  0  0  0  0  0  0  0  0  0  0
    5.4621  -18.8197   19.1854 C   0  0  0  0  0  0  0  0  0  0  0  0
    5.1770  -20.1542   19.7774 C   0  0  0  0  0  0  0  0  0  0  0  0
    4.6287  -21.1442   18.7528 C   0  0  0  0  0  0  0  0  0  0  0  0
    4.4662  -22.4260   19.3933 N   0  0  0  0  0  0  0  0  0  0  0  0
    7.9549  -16.6250   20.8794 C   0  0  0  0  0  0  0  0  0  0  0  0
    8.8771  -17.3833   21.2737 O   0  0  0  0  0  0  0  0  0  0  0  0
    8.1817  -13.6382   23.2484 C   0  0  0  0  0  0  0  0  0  0  0  0
    8.5167  -15.0373   22.7638 C   0  0  2  0  0  0  0  0  0  0  0  0
    7.7759  -15.4110   21.5947 N   0  0  0  0  0  0  0  0  0  0  0  0
    8.3357  -15.9683   23.8988 C   0  0  0  0  0  0  0  0  0  0  0  0
    7.2266  -16.2959   24.3751 O   0  0  0  0  0  0  0  0  0  0  0  0
    8.8484  -19.4042   24.0530 C   0  0  0  0  0  0  0  0  0  0  0  0
    9.8774  -18.8140   24.9803 C   0  0  2  0  0  0  0  0  0  0  0  0
   10.0920  -19.7894   26.1177 C   0  0  0  0  0  0  0  0  0  0  0  0
    9.4620  -17.4923   25.5586 C   0  0  2  0  0  0  0  0  0  0  0  0
    9.5015  -16.5224   24.4805 N   0  0  0  0  0  0  0  0  0  0  0  0
   10.3863  -17.0106   26.6131 C   0  0  0  0  0  0  0  0  0  0  0  0
   10.1860  -17.2669   27.9636 O   0  0  0  0  0  0  0  0  0  0  0  0
   11.4263  -16.3282   26.3417 O   0  0  0  0  0  0  0  0  0  0  0  0
  2  1  1  6
  2  8  1  0
  3  4  1  0
  3  2  1  0
  5  6  1  0
  5  4  1  0
  6  7  1  0
  8 12  1  0
  8  9  2  0
 11 10  1  1
 11 13  1  0
 12 11  1  0
 13 14  2  0
 16 17  1  1
 16 15  1  0
 16 18  1  0
 18 19  1  6
 19 13  1  0
 20 21  1  0
 20 18  1  0
 22 20  2  0
M  END
$$$$
