KAV.pdb
     RDKit          3D

 22 21  0  0  1  0  0  0  0  0999 V2000
    9.4730  -15.7482   18.9865 N   0  0  0  0  0  0  0  0  0  0  0  0
    8.9251  -14.4950   19.4136 C   0  0  1  0  0  0  0  0  0  0  0  0
    8.0802  -13.8970   18.3365 C   0  0  0  0  0  0  0  0  0  0  0  0
    8.3698  -14.4153   16.9764 C   0  0  0  0  0  0  0  0  0  0  0  0
    7.6714  -13.7500   15.8440 C   0  0  0  0  0  0  0  0  0  0  0  0
    8.1286  -14.2741   14.4851 C   0  0  0  0  0  0  0  0  0  0  0  0
    7.3445  -13.6339   13.4580 N   0  0  0  0  0  0  0  0  0  0  0  0
    8.2098  -14.5949   20.7110 C   0  0  0  0  0  0  0  0  0  0  0  0
    7.7359  -13.5575   21.2403 O   0  0  0  0  0  0  0  0  0  0  0  0
    7.3137  -17.3583   23.1912 C   0  0  0  0  0  0  0  0  0  0  0  0
    7.4406  -15.9208   22.7204 C   0  0  2  0  0  0  0  0  0  0  0  0
    8.0195  -15.8148   21.4131 N   0  0  0  0  0  0  0  0  0  0  0  0
    8.1800  -15.1657   23.7554 C   0  0  0  0  0  0  0  0  0  0  0  0
    9.4265  -15.0859   23.8176 O   0  0  0  0  0  0  0  0  0  0  0  0
    7.5826  -11.4521   26.9172 C   0  0  0  0  0  0  0  0  0  0  0  0
    7.0302  -12.5270   26.0192 C   0  0  2  0  0  0  0  0  0  0  0  0
    5.8172  -13.1236   26.7001 C   0  0  0  0  0  0  0  0  0  0  0  0
    8.0120  -13.6290   25.7444 C   0  0  2  0  0  0  0  0  0  0  0  0
    7.4183  -14.4901   24.7391 N   0  0  0  0  0  0  0  0  0  0  0  0
    8.2803  -14.4698   26.9358 C   0  0  0  0  0  0  0  0  0  0  0  0
    9.2695  -14.1671   27.8630 O   0  0  0  0  0  0  0  0  0  0  0  0
    7.6152  -15.5272   27.1820 O   0  0  0  0  0  0  0  0  0  0  0  0
  2  1  1  6
  2  8  1  0
  3  4  1  0
  3  2  1  0
  5  6  1  0
  5  4  1  0
  6  7  1  0
  8 12  1  0
  8  9  2  0
 11 10  1  1
 11 13  1  0
 12 11  1  0
 13 14  2  0
 16 17  1  1
 16 15  1  0
 16 18  1  0
 18 19  1  6
 19 13  1  0
 20 21  1  0
 20 18  1  0
 22 20  2  0
M  END
$$$$
