KAV.pdb
     RDKit          3D

 22 21  0  0  1  0  0  0  0  0999 V2000
    6.0741  -16.0780   20.8234 N   0  0  0  0  0  0  0  0  0  0  0  0
    7.3442  -15.5561   21.2328 C   0  0  1  0  0  0  0  0  0  0  0  0
    7.3509  -14.0647   21.1480 C   0  0  0  0  0  0  0  0  0  0  0  0
    7.1709  -13.5315   19.7748 C   0  0  0  0  0  0  0  0  0  0  0  0
    8.3708  -13.5284   18.8956 C   0  0  0  0  0  0  0  0  0  0  0  0
    8.1252  -12.8076   17.5725 C   0  0  0  0  0  0  0  0  0  0  0  0
    9.3319  -12.8680   16.7852 N   0  0  0  0  0  0  0  0  0  0  0  0
    7.7651  -16.0540   22.5669 C   0  0  0  0  0  0  0  0  0  0  0  0
    7.0135  -15.8806   23.5598 O   0  0  0  0  0  0  0  0  0  0  0  0
   10.4506  -18.3099   23.9948 C   0  0  0  0  0  0  0  0  0  0  0  0
    9.4366  -17.1841   24.0888 C   0  0  2  0  0  0  0  0  0  0  0  0
    8.9913  -16.7305   22.8038 N   0  0  0  0  0  0  0  0  0  0  0  0
   10.0224  -16.1115   24.9220 C   0  0  0  0  0  0  0  0  0  0  0  0
   10.8383  -15.2592   24.5070 O   0  0  0  0  0  0  0  0  0  0  0  0
    8.3103  -13.4361   26.3303 C   0  0  0  0  0  0  0  0  0  0  0  0
    8.8675  -14.1729   27.5193 C   0  0  2  0  0  0  0  0  0  0  0  0
    9.2686  -13.1460   28.5563 C   0  0  0  0  0  0  0  0  0  0  0  0
   10.0699  -15.0078   27.1860 C   0  0  2  0  0  0  0  0  0  0  0  0
    9.6282  -16.0516   26.2804 N   0  0  0  0  0  0  0  0  0  0  0  0
   10.6513  -15.6779   28.3740 C   0  0  0  0  0  0  0  0  0  0  0  0
   10.4804  -17.0320   28.6328 O   0  0  0  0  0  0  0  0  0  0  0  0
   11.3471  -15.0476   29.2340 O   0  0  0  0  0  0  0  0  0  0  0  0
  2  1  1  1
  2  8  1  0
  3  4  1  0
  3  2  1  0
  5  6  1  0
  5  4  1  0
  6  7  1  0
  8 12  1  0
  8  9  2  0
 11 10  1  6
 11 13  1  0
 12 11  1  0
 13 14  2  0
 16 17  1  1
 16 15  1  0
 16 18  1  0
 18 19  1  6
 19 13  1  0
 20 21  1  0
 20 18  1  0
 22 20  2  0
M  END
$$$$
