MAM.pdb
     RDKit          3D

 22 21  0  0  1  0  0  0  0  0999 V2000
   29.4102  -16.9056  -15.8609 C   0  0  0  0  0  0  0  0  0  0  0  0
   29.1367  -18.2629  -17.0226 S   0  0  0  0  0  0  0  0  0  0  0  0
   27.4586  -18.9344  -16.8729 C   0  0  0  0  0  0  0  0  0  0  0  0
   26.8743  -18.5874  -15.5242 C   0  0  0  0  0  0  0  0  0  0  0  0
   25.4352  -19.0472  -15.4001 C   0  0  2  0  0  0  0  0  0  0  0  0
   24.5524  -18.1179  -16.0947 N   0  0  0  0  0  0  0  0  0  0  0  0
   25.0918  -18.9755  -13.9516 C   0  0  0  0  0  0  0  0  0  0  0  0
   25.4066  -17.9757  -13.2402 O   0  0  0  0  0  0  0  0  0  0  0  0
   22.6716  -20.7986  -11.7770 C   0  0  0  0  0  0  0  0  0  0  0  0
   23.9491  -20.0006  -11.9790 C   0  0  2  0  0  0  0  0  0  0  0  0
   24.3898  -20.0571  -13.3417 N   0  0  0  0  0  0  0  0  0  0  0  0
   25.0266  -20.4476  -11.0928 C   0  0  0  0  0  0  0  0  0  0  0  0
   25.7415  -21.4216  -11.4164 O   0  0  0  0  0  0  0  0  0  0  0  0
   29.3012  -19.5980   -4.6089 C   0  0  0  0  0  0  0  0  0  0  0  0
   28.3549  -18.6794   -5.8705 S   0  0  0  0  0  0  0  0  0  0  0  0
   27.5590  -19.9043   -6.9297 C   0  0  0  0  0  0  0  0  0  0  0  0
   26.7686  -19.2646   -8.0519 C   0  0  0  0  0  0  0  0  0  0  0  0
   26.2026  -20.4277   -8.8813 C   0  0  2  0  0  0  0  0  0  0  0  0
   25.3031  -19.8143   -9.8586 N   0  0  0  0  0  0  0  0  0  0  0  0
   25.4841  -21.3915   -8.0453 C   0  0  0  0  0  0  0  0  0  0  0  0
   24.2241  -21.3408   -7.9998 O   0  0  0  0  0  0  0  0  0  0  0  0
   26.1786  -22.3448   -7.3151 O   0  0  0  0  0  0  0  0  0  0  0  0
  2  1  1  0
  3  4  1  0
  3  2  1  0
  4  5  1  0
  5  6  1  6
  7 11  1  0
  7  5  1  0
  8  7  2  0
 10  9  1  6
 10 12  1  0
 10 11  1  0
 12 19  1  0
 13 12  2  0
 15 14  1  0
 16 15  1  0
 17 16  1  0
 18 17  1  1
 19 18  1  0
 20 18  1  0
 20 22  1  0
 21 20  2  0
M  END
$$$$
