MAM.pdb
     RDKit          3D

 22 21  0  0  1  0  0  0  0  0999 V2000
   19.7714  -11.7880  -21.8724 C   0  0  0  0  0  0  0  0  0  0  0  0
   18.0761  -11.7311  -21.2483 S   0  0  0  0  0  0  0  0  0  0  0  0
   18.0010  -12.1840  -19.4937 C   0  0  0  0  0  0  0  0  0  0  0  0
   18.3807  -11.0034  -18.6318 C   0  0  0  0  0  0  0  0  0  0  0  0
   18.8171  -11.4366  -17.2462 C   0  0  2  0  0  0  0  0  0  0  0  0
   17.6911  -12.0208  -16.5278 N   0  0  0  0  0  0  0  0  0  0  0  0
   19.2034  -10.1954  -16.5172 C   0  0  0  0  0  0  0  0  0  0  0  0
   18.3492   -9.3157  -16.1988 O   0  0  0  0  0  0  0  0  0  0  0  0
   22.4033   -8.9855  -14.9038 C   0  0  0  0  0  0  0  0  0  0  0  0
   20.9939   -8.8181  -15.4473 C   0  0  2  0  0  0  0  0  0  0  0  0
   20.5692   -9.9842  -16.1645 N   0  0  0  0  0  0  0  0  0  0  0  0
   20.8686   -7.6377  -16.3057 C   0  0  0  0  0  0  0  0  0  0  0  0
   20.7165   -7.7729  -17.5399 O   0  0  0  0  0  0  0  0  0  0  0  0
   17.3629   -2.6240  -19.9555 C   0  0  0  0  0  0  0  0  0  0  0  0
   17.5402   -4.2015  -19.0549 S   0  0  0  0  0  0  0  0  0  0  0  0
   19.0939   -4.1165  -18.1414 C   0  0  0  0  0  0  0  0  0  0  0  0
   19.3660   -5.3815  -17.3545 C   0  0  0  0  0  0  0  0  0  0  0  0
   20.7229   -5.1634  -16.6673 C   0  0  2  0  0  0  0  0  0  0  0  0
   20.9125   -6.3205  -15.7922 N   0  0  0  0  0  0  0  0  0  0  0  0
   20.7476   -3.9183  -15.8971 C   0  0  0  0  0  0  0  0  0  0  0  0
   20.3723   -3.9376  -14.6925 O   0  0  0  0  0  0  0  0  0  0  0  0
   21.1768   -2.7367  -16.4835 O   0  0  0  0  0  0  0  0  0  0  0  0
  2  1  1  0
  3  4  1  0
  3  2  1  0
  4  5  1  0
  5  6  1  1
  7 11  1  0
  7  5  1  0
  8  7  2  0
 10  9  1  6
 10 12  1  0
 10 11  1  0
 12 19  1  0
 13 12  2  0
 15 14  1  0
 16 15  1  0
 17 16  1  0
 18 17  1  1
 19 18  1  0
 20 18  1  0
 20 22  1  0
 21 20  2  0
M  END
$$$$
