MAM.pdb
     RDKit          3D

 22 21  0  0  1  0  0  0  0  0999 V2000
   28.9741  -20.3828   -7.7227 C   0  0  0  0  0  0  0  0  0  0  0  0
   27.6041  -19.4757   -6.9698 S   0  0  0  0  0  0  0  0  0  0  0  0
   26.0440  -19.7910   -7.8393 C   0  0  0  0  0  0  0  0  0  0  0  0
   26.3148  -20.2118   -9.2642 C   0  0  0  0  0  0  0  0  0  0  0  0
   25.0305  -20.4402  -10.0363 C   0  0  2  0  0  0  0  0  0  0  0  0
   24.3934  -21.6740   -9.5922 N   0  0  0  0  0  0  0  0  0  0  0  0
   25.4229  -20.6397  -11.4603 C   0  0  0  0  0  0  0  0  0  0  0  0
   26.2485  -21.5364  -11.8051 O   0  0  0  0  0  0  0  0  0  0  0  0
   23.7159  -20.6177  -14.4636 C   0  0  0  0  0  0  0  0  0  0  0  0
   25.0098  -20.0924  -13.8639 C   0  0  2  0  0  0  0  0  0  0  0  0
   24.8585  -19.8031  -12.4682 N   0  0  0  0  0  0  0  0  0  0  0  0
   25.5014  -18.9032  -14.5641 C   0  0  0  0  0  0  0  0  0  0  0  0
   25.2429  -17.7626  -14.1207 O   0  0  0  0  0  0  0  0  0  0  0  0
   31.2470  -16.5077  -16.7107 C   0  0  0  0  0  0  0  0  0  0  0  0
   30.2388  -16.8159  -18.2005 S   0  0  0  0  0  0  0  0  0  0  0  0
   28.5097  -16.7703  -17.6868 C   0  0  0  0  0  0  0  0  0  0  0  0
   28.1522  -17.9251  -16.7747 C   0  0  0  0  0  0  0  0  0  0  0  0
   26.6495  -17.7821  -16.4874 C   0  0  2  0  0  0  0  0  0  0  0  0
   26.2731  -18.9863  -15.7466 N   0  0  0  0  0  0  0  0  0  0  0  0
   25.8696  -17.6644  -17.7210 C   0  0  0  0  0  0  0  0  0  0  0  0
   25.2432  -18.6738  -18.1464 O   0  0  0  0  0  0  0  0  0  0  0  0
   25.8209  -16.4618  -18.4106 O   0  0  0  0  0  0  0  0  0  0  0  0
  2  1  1  0
  3  4  1  0
  3  2  1  0
  4  5  1  0
  5  6  1  1
  7 11  1  0
  7  5  1  0
  8  7  2  0
 10  9  1  6
 10 12  1  0
 10 11  1  0
 12 19  1  0
 13 12  2  0
 15 14  1  0
 16 15  1  0
 17 16  1  0
 18 17  1  6
 19 18  1  0
 20 18  1  0
 20 22  1  0
 21 20  2  0
M  END
$$$$
