MAM.pdb
     RDKit          3D

 22 21  0  0  1  0  0  0  0  0999 V2000
   18.8344  -15.1102  -14.2702 C   0  0  0  0  0  0  0  0  0  0  0  0
   17.8687  -16.1847  -15.3563 S   0  0  0  0  0  0  0  0  0  0  0  0
   17.4945  -15.3690  -16.9323 C   0  0  0  0  0  0  0  0  0  0  0  0
   18.0153  -13.9514  -16.9246 C   0  0  0  0  0  0  0  0  0  0  0  0
   17.7834  -13.2604  -18.2537 C   0  0  2  0  0  0  0  0  0  0  0  0
   18.5877  -13.8926  -19.2923 N   0  0  0  0  0  0  0  0  0  0  0  0
   18.2875  -11.8664  -18.0992 C   0  0  0  0  0  0  0  0  0  0  0  0
   19.5226  -11.5926  -18.1663 O   0  0  0  0  0  0  0  0  0  0  0  0
   16.6141   -8.5013  -17.5867 C   0  0  0  0  0  0  0  0  0  0  0  0
   17.7945   -9.4559  -17.6589 C   0  0  2  0  0  0  0  0  0  0  0  0
   17.3617  -10.8060  -17.8693 N   0  0  0  0  0  0  0  0  0  0  0  0
   18.6350   -9.3879  -16.4610 C   0  0  0  0  0  0  0  0  0  0  0  0
   18.5400  -10.2680  -15.5773 O   0  0  0  0  0  0  0  0  0  0  0  0
   24.3734  -11.2141  -12.7371 C   0  0  0  0  0  0  0  0  0  0  0  0
   23.3063  -11.2503  -14.2173 S   0  0  0  0  0  0  0  0  0  0  0  0
   22.2763   -9.7698  -14.1623 C   0  0  0  0  0  0  0  0  0  0  0  0
   21.3499   -9.6716  -15.3562 C   0  0  0  0  0  0  0  0  0  0  0  0
   20.5169   -8.3993  -15.1362 C   0  0  2  0  0  0  0  0  0  0  0  0
   19.5716   -8.3488  -16.2517 N   0  0  0  0  0  0  0  0  0  0  0  0
   21.3554   -7.1992  -15.1095 C   0  0  0  0  0  0  0  0  0  0  0  0
   21.6802   -6.6563  -16.2013 O   0  0  0  0  0  0  0  0  0  0  0  0
   21.7857   -6.6683  -13.9023 O   0  0  0  0  0  0  0  0  0  0  0  0
  2  1  1  0
  3  4  1  0
  3  2  1  0
  4  5  1  0
  5  6  1  6
  7 11  1  0
  7  5  1  0
  8  7  2  0
 10  9  1  1
 10 12  1  0
 10 11  1  0
 12 19  1  0
 13 12  2  0
 15 14  1  0
 16 15  1  0
 17 16  1  0
 18 17  1  6
 19 18  1  0
 20 18  1  0
 20 22  1  0
 21 20  2  0
M  END
$$$$
