MAM.pdb
     RDKit          3D

 22 21  0  0  1  0  0  0  0  0999 V2000
   27.1288  -18.4394   -6.8814 C   0  0  0  0  0  0  0  0  0  0  0  0
   28.2957  -19.8098   -7.0465 S   0  0  0  0  0  0  0  0  0  0  0  0
   27.8758  -20.8707   -8.4562 C   0  0  0  0  0  0  0  0  0  0  0  0
   26.7193  -20.2817   -9.2284 C   0  0  0  0  0  0  0  0  0  0  0  0
   26.1179  -21.2852  -10.1923 C   0  0  2  0  0  0  0  0  0  0  0  0
   27.1306  -22.2488  -10.6062 N   0  0  0  0  0  0  0  0  0  0  0  0
   25.7217  -20.5191  -11.4078 C   0  0  0  0  0  0  0  0  0  0  0  0
   24.9515  -19.5155  -11.3419 O   0  0  0  0  0  0  0  0  0  0  0  0
   26.6524  -20.6515  -15.0689 C   0  0  0  0  0  0  0  0  0  0  0  0
   25.7309  -20.3413  -13.9009 C   0  0  2  0  0  0  0  0  0  0  0  0
   26.2183  -20.9197  -12.6835 N   0  0  0  0  0  0  0  0  0  0  0  0
   24.3578  -20.7896  -14.1454 C   0  0  0  0  0  0  0  0  0  0  0  0
   24.0077  -21.9451  -13.8187 O   0  0  0  0  0  0  0  0  0  0  0  0
   21.3494  -18.9336  -10.2156 C   0  0  0  0  0  0  0  0  0  0  0  0
   19.8746  -19.6785  -10.9910 S   0  0  0  0  0  0  0  0  0  0  0  0
   20.2913  -20.0016  -12.7166 C   0  0  0  0  0  0  0  0  0  0  0  0
   21.7736  -19.8491  -12.9864 C   0  0  0  0  0  0  0  0  0  0  0  0
   21.9599  -20.1484  -14.4820 C   0  0  2  0  0  0  0  0  0  0  0  0
   23.3859  -19.9572  -14.7480 N   0  0  0  0  0  0  0  0  0  0  0  0
   21.1505  -19.2601  -15.3185 C   0  0  0  0  0  0  0  0  0  0  0  0
   21.6449  -18.1647  -15.7031 O   0  0  0  0  0  0  0  0  0  0  0  0
   19.8603  -19.6179  -15.6816 O   0  0  0  0  0  0  0  0  0  0  0  0
  2  1  1  0
  3  4  1  0
  3  2  1  0
  4  5  1  0
  5  6  1  6
  7 11  1  0
  7  5  1  0
  8  7  2  0
 10  9  1  6
 10 12  1  0
 10 11  1  0
 12 19  1  0
 13 12  2  0
 15 14  1  0
 16 15  1  0
 17 16  1  0
 18 17  1  1
 19 18  1  0
 20 18  1  0
 20 22  1  0
 21 20  2  0
M  END
$$$$
