MAM.pdb
     RDKit          3D

 22 21  0  0  1  0  0  0  0  0999 V2000
   25.9991  -20.9759   -9.7575 C   0  0  0  0  0  0  0  0  0  0  0  0
   27.3324  -21.6933  -10.7447 S   0  0  0  0  0  0  0  0  0  0  0  0
   27.6004  -20.7575  -12.2750 C   0  0  0  0  0  0  0  0  0  0  0  0
   26.3319  -20.7184  -13.0936 C   0  0  0  0  0  0  0  0  0  0  0  0
   26.5259  -19.9655  -14.3948 C   0  0  2  0  0  0  0  0  0  0  0  0
   26.9997  -18.6137  -14.1238 N   0  0  0  0  0  0  0  0  0  0  0  0
   25.1767  -19.8389  -15.0154 C   0  0  0  0  0  0  0  0  0  0  0  0
   24.3364  -18.9797  -14.6148 O   0  0  0  0  0  0  0  0  0  0  0  0
   23.4551  -21.4745  -17.9635 C   0  0  0  0  0  0  0  0  0  0  0  0
   23.5009  -20.6865  -16.6648 C   0  0  2  0  0  0  0  0  0  0  0  0
   24.8136  -20.7041  -16.0896 N   0  0  0  0  0  0  0  0  0  0  0  0
   22.5265  -21.1756  -15.6863 C   0  0  0  0  0  0  0  0  0  0  0  0
   22.8986  -21.9070  -14.7423 O   0  0  0  0  0  0  0  0  0  0  0  0
   20.7390  -18.9394  -10.7888 C   0  0  0  0  0  0  0  0  0  0  0  0
   19.0337  -19.2778  -11.3443 S   0  0  0  0  0  0  0  0  0  0  0  0
   19.1432  -20.4860  -12.6800 C   0  0  0  0  0  0  0  0  0  0  0  0
   20.2628  -20.1689  -13.6492 C   0  0  0  0  0  0  0  0  0  0  0  0
   20.2198  -21.2749  -14.7150 C   0  0  2  0  0  0  0  0  0  0  0  0
   21.1516  -20.8518  -15.7605 N   0  0  0  0  0  0  0  0  0  0  0  0
   18.8721  -21.4525  -15.2591 C   0  0  0  0  0  0  0  0  0  0  0  0
   18.5259  -20.7760  -16.2665 O   0  0  0  0  0  0  0  0  0  0  0  0
   17.9903  -22.3505  -14.6755 O   0  0  0  0  0  0  0  0  0  0  0  0
  2  1  1  0
  3  4  1  0
  3  2  1  0
  4  5  1  0
  5  6  1  1
  7 11  1  0
  7  5  1  0
  8  7  2  0
 10  9  1  6
 10 12  1  0
 10 11  1  0
 12 19  1  0
 13 12  2  0
 15 14  1  0
 16 15  1  0
 17 16  1  0
 18 17  1  1
 19 18  1  0
 20 18  1  0
 20 22  1  0
 21 20  2  0
M  END
$$$$
