MAM.pdb
     RDKit          3D

 22 21  0  0  1  0  0  0  0  0999 V2000
   20.8504  -20.0510  -15.8745 C   0  0  0  0  0  0  0  0  0  0  0  0
   20.7159  -18.3966  -16.5897 S   0  0  0  0  0  0  0  0  0  0  0  0
   22.3366  -17.5908  -16.7037 C   0  0  0  0  0  0  0  0  0  0  0  0
   23.4361  -18.5814  -16.4024 C   0  0  0  0  0  0  0  0  0  0  0  0
   23.8955  -18.4898  -14.9608 C   0  0  2  0  0  0  0  0  0  0  0  0
   24.5265  -17.1981  -14.7188 N   0  0  0  0  0  0  0  0  0  0  0  0
   24.9487  -19.5297  -14.7856 C   0  0  0  0  0  0  0  0  0  0  0  0
   24.7175  -20.7562  -15.0027 O   0  0  0  0  0  0  0  0  0  0  0  0
   28.6738  -19.4521  -14.4172 C   0  0  0  0  0  0  0  0  0  0  0  0
   27.3133  -20.0961  -14.2068 C   0  0  2  0  0  0  0  0  0  0  0  0
   26.2547  -19.1425  -14.3627 N   0  0  0  0  0  0  0  0  0  0  0  0
   27.2048  -20.7446  -12.8977 C   0  0  0  0  0  0  0  0  0  0  0  0
   27.6604  -21.8972  -12.7290 O   0  0  0  0  0  0  0  0  0  0  0  0
   28.7740  -19.3469   -6.8184 C   0  0  0  0  0  0  0  0  0  0  0  0
   26.9674  -19.5684   -6.6840 S   0  0  0  0  0  0  0  0  0  0  0  0
   26.4463  -20.5375   -8.1141 C   0  0  0  0  0  0  0  0  0  0  0  0
   26.6938  -19.8111   -9.4196 C   0  0  0  0  0  0  0  0  0  0  0  0
   26.3935  -20.8305  -10.5294 C   0  0  2  0  0  0  0  0  0  0  0  0
   26.5944  -20.1134  -11.7888 N   0  0  0  0  0  0  0  0  0  0  0  0
   25.0267  -21.3473  -10.4367 C   0  0  0  0  0  0  0  0  0  0  0  0
   24.7095  -22.0617   -9.4461 O   0  0  0  0  0  0  0  0  0  0  0  0
   24.0959  -21.0558  -11.4231 O   0  0  0  0  0  0  0  0  0  0  0  0
  2  1  1  0
  3  4  1  0
  3  2  1  0
  4  5  1  0
  5  6  1  6
  7 11  1  0
  7  5  1  0
  8  7  2  0
 10  9  1  1
 10 12  1  0
 10 11  1  0
 12 19  1  0
 13 12  2  0
 15 14  1  0
 16 15  1  0
 17 16  1  0
 18 17  1  1
 19 18  1  0
 20 18  1  0
 20 22  1  0
 21 20  2  0
M  END
$$$$
