MAM.pdb
     RDKit          3D

 22 21  0  0  1  0  0  0  0  0999 V2000
   32.5474  -47.0390  -86.7822 C   0  0  0  0  0  0  0  0  0  0  0  0
   33.3751  -47.0731  -85.1758 S   0  0  0  0  0  0  0  0  0  0  0  0
   32.8986  -48.5365  -84.2164 C   0  0  0  0  0  0  0  0  0  0  0  0
   32.1681  -48.1239  -82.9606 C   0  0  0  0  0  0  0  0  0  0  0  0
   32.7207  -48.8223  -81.7340 C   0  0  2  0  0  0  0  0  0  0  0  0
   32.5386  -47.9824  -80.5564 N   0  0  0  0  0  0  0  0  0  0  0  0
   34.1891  -48.9583  -81.9503 C   0  0  0  0  0  0  0  0  0  0  0  0
   34.8404  -48.1250  -82.6475 O   0  0  0  0  0  0  0  0  0  0  0  0
   36.9618  -51.1690  -81.9946 C   0  0  0  0  0  0  0  0  0  0  0  0
   35.4516  -51.1060  -82.1522 C   0  0  2  0  0  0  0  0  0  0  0  0
   34.8877  -50.0528  -81.3601 N   0  0  0  0  0  0  0  0  0  0  0  0
   34.8066  -52.3772  -81.8144 C   0  0  0  0  0  0  0  0  0  0  0  0
   35.0243  -52.9162  -80.7068 O   0  0  0  0  0  0  0  0  0  0  0  0
   33.1560  -50.5804  -87.2085 C   0  0  0  0  0  0  0  0  0  0  0  0
   32.4140  -52.1727  -86.7137 S   0  0  0  0  0  0  0  0  0  0  0  0
   33.0006  -52.5332  -85.0459 C   0  0  0  0  0  0  0  0  0  0  0  0
   34.3461  -53.2281  -85.0493 C   0  0  0  0  0  0  0  0  0  0  0  0
   34.4358  -53.9736  -83.7086 C   0  0  2  0  0  0  0  0  0  0  0  0
   33.9282  -53.0398  -82.7032 N   0  0  0  0  0  0  0  0  0  0  0  0
   35.8101  -54.3741  -83.4008 C   0  0  0  0  0  0  0  0  0  0  0  0
   36.0034  -55.3190  -82.5871 O   0  0  0  0  0  0  0  0  0  0  0  0
   36.8821  -53.7240  -83.9945 O   0  0  0  0  0  0  0  0  0  0  0  0
  2  1  1  0
  3  4  1  0
  3  2  1  0
  4  5  1  0
  5  6  1  1
  7 11  1  0
  7  5  1  0
  8  7  2  0
 10  9  1  1
 10 12  1  0
 10 11  1  0
 12 19  1  0
 13 12  2  0
 15 14  1  0
 16 15  1  0
 17 16  1  0
 18 17  1  6
 19 18  1  0
 20 18  1  0
 20 22  1  0
 21 20  2  0
M  END
$$$$
