ISD.pdb
     RDKit          3D

 23 22  0  0  1  0  0  0  0  0999 V2000
   23.3887  -25.1118  -13.3064 C   0  0  0  0  0  0  0  0  0  0  0  0
   24.5839  -24.2779  -12.9846 C   0  0  0  0  0  0  0  0  0  0  0  0
   24.5629  -22.8842  -13.5132 C   0  0  2  0  0  0  0  0  0  0  0  0
   24.3265  -22.9675  -15.0108 C   0  0  0  0  0  0  0  0  0  0  0  0
   25.7717  -22.0716  -13.1798 C   0  0  2  0  0  0  0  0  0  0  0  0
   25.8412  -21.9240  -11.7324 N   0  0  0  0  0  0  0  0  0  0  0  0
   25.6786  -20.7306  -13.7923 C   0  0  0  0  0  0  0  0  0  0  0  0
   24.8934  -19.8789  -13.2597 O   0  0  0  0  0  0  0  0  0  0  0  0
   28.1142  -19.5072  -16.9277 O   0  0  0  0  0  0  0  0  0  0  0  0
   27.6429  -18.5917  -15.9921 C   0  0  0  0  0  0  0  0  0  0  0  0
   26.2931  -19.0098  -15.4537 C   0  0  2  0  0  0  0  0  0  0  0  0
   26.4179  -20.3535  -14.9413 N   0  0  0  0  0  0  0  0  0  0  0  0
   25.2328  -18.9023  -16.4809 C   0  0  0  0  0  0  0  0  0  0  0  0
   24.9711  -19.8818  -17.2108 O   0  0  0  0  0  0  0  0  0  0  0  0
   24.4865  -17.6942  -16.6673 N   0  0  0  0  0  0  0  0  0  0  0  0
   23.5042  -17.5239  -17.6906 C   0  0  1  0  0  0  0  0  0  0  0  0
   22.2964  -16.8032  -17.1392 C   0  0  0  0  0  0  0  0  0  0  0  0
   21.4775  -17.5928  -16.2172 C   0  0  0  0  0  0  0  0  0  0  0  0
   21.6012  -18.8359  -16.1332 O   0  0  0  0  0  0  0  0  0  0  0  0
   24.0480  -16.8195  -18.8860 C   0  0  0  0  0  0  0  0  0  0  0  0
   23.3827  -16.6810  -19.9385 O   0  0  0  0  0  0  0  0  0  0  0  0
   20.5226  -16.9938  -15.3857 O   0  0  0  0  0  0  0  0  0  0  0  0
   25.3350  -16.2810  -18.8698 O   0  0  0  0  0  0  0  0  0  0  0  0
  1  2  1  0
  2  3  1  0
  3  4  1  6
  5  3  1  0
  5  6  1  1
  7  5  1  0
  7  8  2  0
 10  9  1  0
 11 10  1  6
 11 12  1  0
 12  7  1  0
 13 15  1  0
 13 11  1  0
 14 13  2  0
 16 15  1  0
 16 20  1  0
 16 17  1  1
 18 17  1  0
 18 22  1  0
 19 18  2  0
 20 23  1  0
 21 20  2  0
M  END
$$$$
