ISD.pdb
     RDKit          3D

 23 22  0  0  1  0  0  0  0  0999 V2000
   16.2718  -24.9789    2.3469 C   0  0  0  0  0  0  0  0  0  0  0  0
   16.1082  -23.6130    1.7681 C   0  0  0  0  0  0  0  0  0  0  0  0
   14.7340  -23.0397    1.8387 C   0  0  2  0  0  0  0  0  0  0  0  0
   13.8057  -23.9863    1.0985 C   0  0  0  0  0  0  0  0  0  0  0  0
   14.6169  -21.6354    1.3418 C   0  0  2  0  0  0  0  0  0  0  0  0
   15.0260  -21.6069   -0.0558 N   0  0  0  0  0  0  0  0  0  0  0  0
   15.4985  -20.7376    2.1156 C   0  0  0  0  0  0  0  0  0  0  0  0
   16.5534  -20.2970    1.5513 O   0  0  0  0  0  0  0  0  0  0  0  0
   14.2421  -18.1870    4.8391 O   0  0  0  0  0  0  0  0  0  0  0  0
   15.4878  -18.1045    4.2250 C   0  0  0  0  0  0  0  0  0  0  0  0
   16.1401  -19.4657    4.1329 C   0  0  2  0  0  0  0  0  0  0  0  0
   15.2252  -20.3498    3.4512 N   0  0  0  0  0  0  0  0  0  0  0  0
   16.5255  -19.9833    5.4650 C   0  0  0  0  0  0  0  0  0  0  0  0
   15.7936  -20.8117    6.0470 O   0  0  0  0  0  0  0  0  0  0  0  0
   17.7277  -19.5588    6.1174 N   0  0  0  0  0  0  0  0  0  0  0  0
   18.0765  -19.9349    7.4508 C   0  0  1  0  0  0  0  0  0  0  0  0
   19.5788  -19.9804    7.6037 C   0  0  0  0  0  0  0  0  0  0  0  0
   20.2017  -21.2366    7.1816 C   0  0  0  0  0  0  0  0  0  0  0  0
   19.5145  -22.2411    6.8881 O   0  0  0  0  0  0  0  0  0  0  0  0
   17.4618  -19.0392    8.4710 C   0  0  0  0  0  0  0  0  0  0  0  0
   17.4840  -19.3078    9.6945 O   0  0  0  0  0  0  0  0  0  0  0  0
   21.5925  -21.3702    7.0836 O   0  0  0  0  0  0  0  0  0  0  0  0
   16.8342  -17.8528    8.0901 O   0  0  0  0  0  0  0  0  0  0  0  0
  1  2  1  0
  2  3  1  0
  3  4  1  6
  5  3  1  0
  5  6  1  6
  7  5  1  0
  7  8  2  0
 10  9  1  0
 11 10  1  1
 11 12  1  0
 12  7  1  0
 13 15  1  0
 13 11  1  0
 14 13  2  0
 16 15  1  0
 16 20  1  0
 16 17  1  6
 18 17  1  0
 18 22  1  0
 19 18  2  0
 20 23  1  0
 21 20  2  0
M  END
$$$$
