ISD.pdb
     RDKit          3D

 23 22  0  0  1  0  0  0  0  0999 V2000
   28.1864  -12.9661  -15.2896 C   0  0  0  0  0  0  0  0  0  0  0  0
   26.8408  -13.4887  -15.6688 C   0  0  0  0  0  0  0  0  0  0  0  0
   25.8209  -12.4594  -16.0189 C   0  0  2  0  0  0  0  0  0  0  0  0
   25.5974  -11.6006  -14.7867 C   0  0  0  0  0  0  0  0  0  0  0  0
   24.5410  -13.0074  -16.5612 C   0  0  2  0  0  0  0  0  0  0  0  0
   24.8523  -13.8591  -17.7010 N   0  0  0  0  0  0  0  0  0  0  0  0
   23.6586  -11.9116  -17.0111 C   0  0  0  0  0  0  0  0  0  0  0  0
   24.0185  -11.2265  -18.0244 O   0  0  0  0  0  0  0  0  0  0  0  0
   19.4544  -10.0448  -17.7389 O   0  0  0  0  0  0  0  0  0  0  0  0
   20.2809  -11.0466  -17.2400 C   0  0  0  0  0  0  0  0  0  0  0  0
   21.6397  -10.4963  -16.8690 C   0  0  2  0  0  0  0  0  0  0  0  0
   22.4379  -11.5892  -16.3670 N   0  0  0  0  0  0  0  0  0  0  0  0
   21.5376   -9.3879  -15.8933 C   0  0  0  0  0  0  0  0  0  0  0  0
   21.9032   -9.5625  -14.7116 O   0  0  0  0  0  0  0  0  0  0  0  0
   21.0260   -8.1031  -16.2660 N   0  0  0  0  0  0  0  0  0  0  0  0
   20.8472   -7.0274  -15.3431 C   0  0  1  0  0  0  0  0  0  0  0  0
   22.1678   -6.6608  -14.7073 C   0  0  0  0  0  0  0  0  0  0  0  0
   22.0964   -5.5796  -13.7223 C   0  0  0  0  0  0  0  0  0  0  0  0
   21.1866   -5.5365  -12.8632 O   0  0  0  0  0  0  0  0  0  0  0  0
   20.2099   -5.8381  -15.9761 C   0  0  0  0  0  0  0  0  0  0  0  0
   19.9977   -5.7722  -17.2090 O   0  0  0  0  0  0  0  0  0  0  0  0
   23.0433   -4.5480  -13.6941 O   0  0  0  0  0  0  0  0  0  0  0  0
   19.8209   -4.7439  -15.2029 O   0  0  0  0  0  0  0  0  0  0  0  0
  1  2  1  0
  2  3  1  0
  3  4  1  1
  5  3  1  0
  5  6  1  6
  7  5  1  0
  7  8  2  0
 10  9  1  0
 11 10  1  1
 11 12  1  0
 12  7  1  0
 13 15  1  0
 13 11  1  0
 14 13  2  0
 16 15  1  0
 16 20  1  0
 16 17  1  6
 18 17  1  0
 18 22  1  0
 19 18  2  0
 20 23  1  0
 21 20  2  0
M  END
$$$$
