ISD.pdb
     RDKit          3D

 23 22  0  0  1  0  0  0  0  0999 V2000
   28.7558  -13.3957  -16.5549 C   0  0  0  0  0  0  0  0  0  0  0  0
   27.5005  -13.0444  -15.8281 C   0  0  0  0  0  0  0  0  0  0  0  0
   26.8927  -11.7302  -16.1825 C   0  0  2  0  0  0  0  0  0  0  0  0
   27.9347  -10.6584  -15.9156 C   0  0  0  0  0  0  0  0  0  0  0  0
   25.5970  -11.4366  -15.4986 C   0  0  2  0  0  0  0  0  0  0  0  0
   24.6975  -12.5613  -15.7161 N   0  0  0  0  0  0  0  0  0  0  0  0
   24.9807  -10.2170  -16.0596 C   0  0  0  0  0  0  0  0  0  0  0  0
   25.5772   -9.1044  -15.8810 O   0  0  0  0  0  0  0  0  0  0  0  0
   21.0559  -10.0785  -17.5416 O   0  0  0  0  0  0  0  0  0  0  0  0
   22.0329   -9.2844  -18.1336 C   0  0  0  0  0  0  0  0  0  0  0  0
   23.1491   -8.9788  -17.1602 C   0  0  2  0  0  0  0  0  0  0  0  0
   23.7607  -10.2301  -16.7810 N   0  0  0  0  0  0  0  0  0  0  0  0
   22.6639   -8.2185  -15.9866 C   0  0  0  0  0  0  0  0  0  0  0  0
   22.4242   -8.8135  -14.9146 O   0  0  0  0  0  0  0  0  0  0  0  0
   22.4576   -6.8023  -16.0413 N   0  0  0  0  0  0  0  0  0  0  0  0
   22.0010   -6.0283  -14.9307 C   0  0  1  0  0  0  0  0  0  0  0  0
   22.5117   -4.6106  -15.0378 C   0  0  0  0  0  0  0  0  0  0  0  0
   22.0826   -3.7196  -13.9579 C   0  0  0  0  0  0  0  0  0  0  0  0
   21.5087   -4.1598  -12.9359 O   0  0  0  0  0  0  0  0  0  0  0  0
   20.5170   -6.0535  -14.7948 C   0  0  0  0  0  0  0  0  0  0  0  0
   19.9429   -5.8206  -13.7059 O   0  0  0  0  0  0  0  0  0  0  0  0
   22.2975   -2.3368  -14.0173 O   0  0  0  0  0  0  0  0  0  0  0  0
   19.7070   -6.3394  -15.8942 O   0  0  0  0  0  0  0  0  0  0  0  0
  1  2  1  0
  2  3  1  0
  3  4  1  1
  5  3  1  0
  5  6  1  6
  7  5  1  0
  7  8  2  0
 10  9  1  0
 11 10  1  6
 11 12  1  0
 12  7  1  0
 13 15  1  0
 13 11  1  0
 14 13  2  0
 16 15  1  0
 16 20  1  0
 16 17  1  6
 18 17  1  0
 18 22  1  0
 19 18  2  0
 20 23  1  0
 21 20  2  0
M  END
$$$$
