ISD.pdb
     RDKit          3D

 23 22  0  0  1  0  0  0  0  0999 V2000
   16.2883  -12.7816  -18.3914 C   0  0  0  0  0  0  0  0  0  0  0  0
   17.5043  -11.9834  -18.7256 C   0  0  0  0  0  0  0  0  0  0  0  0
   18.1141  -11.2272  -17.5949 C   0  0  2  0  0  0  0  0  0  0  0  0
   17.0523  -10.2901  -17.0472 C   0  0  0  0  0  0  0  0  0  0  0  0
   19.3779  -10.5065  -17.9351 C   0  0  2  0  0  0  0  0  0  0  0  0
   20.3571  -11.4849  -18.3884 N   0  0  0  0  0  0  0  0  0  0  0  0
   19.9129   -9.8112  -16.7467 C   0  0  0  0  0  0  0  0  0  0  0  0
   19.2047   -8.8926  -16.2173 O   0  0  0  0  0  0  0  0  0  0  0  0
   23.8896   -9.9936  -15.5885 O   0  0  0  0  0  0  0  0  0  0  0  0
   22.9393   -9.9680  -14.5726 C   0  0  0  0  0  0  0  0  0  0  0  0
   21.6474   -9.3449  -15.0516 C   0  0  2  0  0  0  0  0  0  0  0  0
   21.1732  -10.1174  -16.1750 N   0  0  0  0  0  0  0  0  0  0  0  0
   21.8187   -7.9147  -15.3926 C   0  0  0  0  0  0  0  0  0  0  0  0
   21.8820   -7.5630  -16.5896 O   0  0  0  0  0  0  0  0  0  0  0  0
   21.9154   -6.9069  -14.3796 N   0  0  0  0  0  0  0  0  0  0  0  0
   22.1220   -5.5218  -14.6624 C   0  0  1  0  0  0  0  0  0  0  0  0
   21.0328   -5.0076  -15.5743 C   0  0  0  0  0  0  0  0  0  0  0  0
   21.0993   -3.5735  -15.8630 C   0  0  0  0  0  0  0  0  0  0  0  0
   22.1956   -2.9814  -15.9868 O   0  0  0  0  0  0  0  0  0  0  0  0
   22.2154   -4.6987  -13.4235 C   0  0  0  0  0  0  0  0  0  0  0  0
   22.3974   -3.4596  -13.4581 O   0  0  0  0  0  0  0  0  0  0  0  0
   19.9413   -2.8009  -16.0174 O   0  0  0  0  0  0  0  0  0  0  0  0
   22.0988   -5.2910  -12.1657 O   0  0  0  0  0  0  0  0  0  0  0  0
  1  2  1  0
  2  3  1  0
  3  4  1  6
  5  3  1  0
  5  6  1  1
  7  5  1  0
  7  8  2  0
 10  9  1  0
 11 10  1  6
 11 12  1  0
 12  7  1  0
 13 15  1  0
 13 11  1  0
 14 13  2  0
 16 15  1  0
 16 20  1  0
 16 17  1  6
 18 17  1  0
 18 22  1  0
 19 18  2  0
 20 23  1  0
 21 20  2  0
M  END
$$$$
