ISD.pdb
     RDKit          3D

 23 22  0  0  1  0  0  0  0  0999 V2000
   14.5206  -13.2639  -11.6089 C   0  0  0  0  0  0  0  0  0  0  0  0
   14.2620  -12.2628  -10.5326 C   0  0  0  0  0  0  0  0  0  0  0  0
   14.7524  -10.8810  -10.8015 C   0  0  2  0  0  0  0  0  0  0  0  0
   16.2441  -10.9702  -11.0705 C   0  0  0  0  0  0  0  0  0  0  0  0
   14.4328   -9.8860   -9.7336 C   0  0  2  0  0  0  0  0  0  0  0  0
   12.9922   -9.8893   -9.5188 N   0  0  0  0  0  0  0  0  0  0  0  0
   14.8506   -8.5310  -10.1473 C   0  0  0  0  0  0  0  0  0  0  0  0
   14.3242   -8.0328  -11.1962 O   0  0  0  0  0  0  0  0  0  0  0  0
   16.7010   -5.7993   -7.7531 O   0  0  0  0  0  0  0  0  0  0  0  0
   16.1003   -5.4439   -8.9567 C   0  0  0  0  0  0  0  0  0  0  0  0
   16.2845   -6.5258   -9.9970 C   0  0  2  0  0  0  0  0  0  0  0  0
   15.8080   -7.7667   -9.4342 N   0  0  0  0  0  0  0  0  0  0  0  0
   17.6910   -6.6231  -10.4477 C   0  0  0  0  0  0  0  0  0  0  0  0
   18.4918   -7.3605   -9.8349 O   0  0  0  0  0  0  0  0  0  0  0  0
   18.1700   -5.8887  -11.5801 N   0  0  0  0  0  0  0  0  0  0  0  0
   19.4948   -6.0157  -12.0996 C   0  0  1  0  0  0  0  0  0  0  0  0
   19.6648   -7.3580  -12.7718 C   0  0  0  0  0  0  0  0  0  0  0  0
   20.9652   -7.5638  -13.4128 C   0  0  0  0  0  0  0  0  0  0  0  0
   21.3368   -6.8595  -14.3790 O   0  0  0  0  0  0  0  0  0  0  0  0
   19.8483   -4.9043  -13.0273 C   0  0  0  0  0  0  0  0  0  0  0  0
   18.9763   -4.2210  -13.6124 O   0  0  0  0  0  0  0  0  0  0  0  0
   21.8527   -8.5540  -12.9727 O   0  0  0  0  0  0  0  0  0  0  0  0
   21.1830   -4.5827  -13.2758 O   0  0  0  0  0  0  0  0  0  0  0  0
  1  2  1  0
  2  3  1  0
  3  4  1  1
  5  3  1  0
  5  6  1  6
  7  5  1  0
  7  8  2  0
 10  9  1  0
 11 10  1  1
 11 12  1  0
 12  7  1  0
 13 15  1  0
 13 11  1  0
 14 13  2  0
 16 15  1  0
 16 20  1  0
 16 17  1  6
 18 17  1  0
 18 22  1  0
 19 18  2  0
 20 23  1  0
 21 20  2  0
M  END
$$$$
