ISD.pdb
     RDKit          3D

 23 22  0  0  1  0  0  0  0  0999 V2000
   26.2463  -20.1150   -7.6857 C   0  0  0  0  0  0  0  0  0  0  0  0
   26.5010  -20.9919   -8.8662 C   0  0  0  0  0  0  0  0  0  0  0  0
   25.6901  -20.6946  -10.0812 C   0  0  2  0  0  0  0  0  0  0  0  0
   24.2276  -20.8471   -9.7025 C   0  0  0  0  0  0  0  0  0  0  0  0
   26.0465  -21.5065  -11.2839 C   0  0  2  0  0  0  0  0  0  0  0  0
   27.4684  -21.3353  -11.5489 N   0  0  0  0  0  0  0  0  0  0  0  0
   25.2828  -21.0480  -12.4623 C   0  0  0  0  0  0  0  0  0  0  0  0
   25.5544  -19.9000  -12.9461 O   0  0  0  0  0  0  0  0  0  0  0  0
   23.4879  -23.5238  -15.0618 O   0  0  0  0  0  0  0  0  0  0  0  0
   23.7939  -22.2053  -15.3837 C   0  0  0  0  0  0  0  0  0  0  0  0
   23.5511  -21.2875  -14.2067 C   0  0  2  0  0  0  0  0  0  0  0  0
   24.2654  -21.8235  -13.0727 N   0  0  0  0  0  0  0  0  0  0  0  0
   22.1072  -21.1208  -13.9266 C   0  0  0  0  0  0  0  0  0  0  0  0
   21.5754  -21.7616  -12.9954 O   0  0  0  0  0  0  0  0  0  0  0  0
   21.2888  -20.2357  -14.6999 N   0  0  0  0  0  0  0  0  0  0  0  0
   19.8912  -20.0500  -14.4689 C   0  0  1  0  0  0  0  0  0  0  0  0
   19.4685  -18.6689  -14.9116 C   0  0  0  0  0  0  0  0  0  0  0  0
   19.7520  -17.6017  -13.9498 C   0  0  0  0  0  0  0  0  0  0  0  0
   20.1580  -17.8548  -12.7928 O   0  0  0  0  0  0  0  0  0  0  0  0
   19.0638  -21.0997  -15.1282 C   0  0  0  0  0  0  0  0  0  0  0  0
   19.4139  -21.6510  -16.1973 O   0  0  0  0  0  0  0  0  0  0  0  0
   19.5858  -16.2510  -14.2811 O   0  0  0  0  0  0  0  0  0  0  0  0
   17.8550  -21.5100  -14.5653 O   0  0  0  0  0  0  0  0  0  0  0  0
  1  2  1  0
  2  3  1  0
  3  4  1  1
  5  3  1  0
  5  6  1  6
  7  5  1  0
  7  8  2  0
 10  9  1  0
 11 10  1  6
 11 12  1  0
 12  7  1  0
 13 15  1  0
 13 11  1  0
 14 13  2  0
 16 15  1  0
 16 20  1  0
 16 17  1  6
 18 17  1  0
 18 22  1  0
 19 18  2  0
 20 23  1  0
 21 20  2  0
M  END
$$$$
