ISD.pdb
     RDKit          3D

 23 22  0  0  1  0  0  0  0  0999 V2000
   28.6858  -13.3263  -15.2402 C   0  0  0  0  0  0  0  0  0  0  0  0
   27.3780  -13.1406  -15.9349 C   0  0  0  0  0  0  0  0  0  0  0  0
   27.0238  -11.7355  -16.2848 C   0  0  2  0  0  0  0  0  0  0  0  0
   26.8404  -10.9735  -14.9843 C   0  0  0  0  0  0  0  0  0  0  0  0
   25.8425  -11.5958  -17.1891 C   0  0  2  0  0  0  0  0  0  0  0  0
   26.1206  -12.3179  -18.4231 N   0  0  0  0  0  0  0  0  0  0  0  0
   25.6031  -10.1743  -17.5115 C   0  0  0  0  0  0  0  0  0  0  0  0
   26.3551   -9.6189  -18.3785 O   0  0  0  0  0  0  0  0  0  0  0  0
   24.8820   -7.3794  -19.6096 O   0  0  0  0  0  0  0  0  0  0  0  0
   24.0162   -8.1814  -18.8728 C   0  0  0  0  0  0  0  0  0  0  0  0
   24.3051   -8.0767  -17.3921 C   0  0  2  0  0  0  0  0  0  0  0  0
   24.5816   -9.4052  -16.9000 N   0  0  0  0  0  0  0  0  0  0  0  0
   23.1933   -7.4317  -16.6581 C   0  0  0  0  0  0  0  0  0  0  0  0
   22.1934   -8.1032  -16.3264 O   0  0  0  0  0  0  0  0  0  0  0  0
   23.2276   -6.0427  -16.3108 N   0  0  0  0  0  0  0  0  0  0  0  0
   22.2056   -5.3939  -15.5521 C   0  0  1  0  0  0  0  0  0  0  0  0
   22.7167   -4.0825  -15.0030 C   0  0  0  0  0  0  0  0  0  0  0  0
   21.7293   -3.3042  -14.2522 C   0  0  0  0  0  0  0  0  0  0  0  0
   20.8774   -3.8592  -13.5216 O   0  0  0  0  0  0  0  0  0  0  0  0
   20.9564   -5.1934  -16.3398 C   0  0  0  0  0  0  0  0  0  0  0  0
   20.9737   -4.7981  -17.5285 O   0  0  0  0  0  0  0  0  0  0  0  0
   21.6955   -1.9054  -14.3142 O   0  0  0  0  0  0  0  0  0  0  0  0
   19.7082   -5.4461  -15.7701 O   0  0  0  0  0  0  0  0  0  0  0  0
  1  2  1  0
  2  3  1  0
  3  4  1  1
  5  3  1  0
  5  6  1  6
  7  5  1  0
  7  8  2  0
 10  9  1  0
 11 10  1  6
 11 12  1  0
 12  7  1  0
 13 15  1  0
 13 11  1  0
 14 13  2  0
 16 15  1  0
 16 20  1  0
 16 17  1  6
 18 17  1  0
 18 22  1  0
 19 18  2  0
 20 23  1  0
 21 20  2  0
M  END
$$$$
