GIC.pdb
     RDKit          3D

 19 18  0  0  1  0  0  0  0  0999 V2000
   16.7495  -11.8370  -16.5467 N   0  0  0  0  0  0  0  0  0  0  0  0
   17.5730  -10.7826  -17.1353 C   0  0  0  0  0  0  0  0  0  0  0  0
   18.4818  -10.2376  -16.0953 C   0  0  0  0  0  0  0  0  0  0  0  0
   18.0495  -10.0744  -14.9388 O   0  0  0  0  0  0  0  0  0  0  0  0
   22.7083  -10.3374  -12.9509 C   0  0  0  0  0  0  0  0  0  0  0  0
   22.9943   -9.7410  -14.3031 C   0  0  0  0  0  0  0  0  0  0  0  0
   22.0439  -10.1351  -15.3803 C   0  0  2  0  0  0  0  0  0  0  0  0
   22.7188  -10.2667  -16.7332 C   0  0  0  0  0  0  0  0  0  0  0  0
   20.7605   -9.3530  -15.4467 C   0  0  2  0  0  0  0  0  0  0  0  0
   19.8227   -9.9007  -16.3873 N   0  0  0  0  0  0  0  0  0  0  0  0
   20.9883   -7.9188  -15.6086 C   0  0  0  0  0  0  0  0  0  0  0  0
   21.3242   -7.4374  -16.7129 O   0  0  0  0  0  0  0  0  0  0  0  0
   20.8346   -7.0362  -14.5214 N   0  0  0  0  0  0  0  0  0  0  0  0
   21.0424   -5.6090  -14.6928 C   0  0  1  0  0  0  0  0  0  0  0  0
   19.6997   -4.9102  -14.4243 C   0  0  0  0  0  0  0  0  0  0  0  0
   18.6211   -5.3202  -15.8205 S   0  0  0  0  0  0  0  0  0  0  0  0
   22.0969   -5.0780  -13.8359 C   0  0  0  0  0  0  0  0  0  0  0  0
   22.6776   -3.8622  -14.1215 O   0  0  0  0  0  0  0  0  0  0  0  0
   22.4857   -5.7153  -12.8366 O   0  0  0  0  0  0  0  0  0  0  0  0
  2  1  1  0
  3  2  1  0
  4  3  2  0
  5  6  1  0
  7  6  1  0
  7  8  1  6
  9 10  1  6
  9  7  1  0
 10  3  1  0
 11  9  1  0
 12 11  2  0
 13 11  1  0
 14 15  1  1
 14 13  1  0
 16 15  1  0
 17 18  1  0
 17 14  1  0
 19 17  2  0
M  END
$$$$
