GIC.pdb
     RDKit          3D

 19 18  0  0  1  0  0  0  0  0999 V2000
   22.9732  -15.4095  -18.5186 N   0  0  0  0  0  0  0  0  0  0  0  0
   23.1560  -14.0493  -19.0211 C   0  0  0  0  0  0  0  0  0  0  0  0
   23.2484  -13.1143  -17.8712 C   0  0  0  0  0  0  0  0  0  0  0  0
   22.2689  -12.9896  -17.1122 O   0  0  0  0  0  0  0  0  0  0  0  0
   28.1401  -12.4608  -15.5029 C   0  0  0  0  0  0  0  0  0  0  0  0
   26.6455  -12.5398  -15.6636 C   0  0  0  0  0  0  0  0  0  0  0  0
   25.9886  -11.2718  -16.0875 C   0  0  2  0  0  0  0  0  0  0  0  0
   26.1669  -10.1562  -15.0742 C   0  0  0  0  0  0  0  0  0  0  0  0
   24.5693  -11.3935  -16.5713 C   0  0  2  0  0  0  0  0  0  0  0  0
   24.4196  -12.3649  -17.6193 N   0  0  0  0  0  0  0  0  0  0  0  0
   23.9713  -10.0966  -16.8800 C   0  0  0  0  0  0  0  0  0  0  0  0
   24.3838   -9.4050  -17.8370 O   0  0  0  0  0  0  0  0  0  0  0  0
   22.9098   -9.5884  -16.1058 N   0  0  0  0  0  0  0  0  0  0  0  0
   22.3581   -8.2733  -16.3804 C   0  0  1  0  0  0  0  0  0  0  0  0
   20.9775   -8.4759  -17.0254 C   0  0  0  0  0  0  0  0  0  0  0  0
   20.2489   -6.8272  -17.2038 S   0  0  0  0  0  0  0  0  0  0  0  0
   22.2696   -7.4311  -15.1924 C   0  0  0  0  0  0  0  0  0  0  0  0
   22.4562   -6.0700  -15.2904 O   0  0  0  0  0  0  0  0  0  0  0  0
   22.0247   -7.9302  -14.0758 O   0  0  0  0  0  0  0  0  0  0  0  0
  2  1  1  0
  3  2  1  0
  4  3  2  0
  5  6  1  0
  7  6  1  0
  7  8  1  1
  9 10  1  6
  9  7  1  0
 10  3  1  0
 11  9  1  0
 12 11  2  0
 13 11  1  0
 14 15  1  1
 14 13  1  0
 16 15  1  0
 17 18  1  0
 17 14  1  0
 19 17  2  0
M  END
$$$$
