GIC.pdb
     RDKit          3D

 19 18  0  0  1  0  0  0  0  0999 V2000
   21.4599  -12.9418  -19.5213 N   0  0  0  0  0  0  0  0  0  0  0  0
   21.6165  -11.4923  -19.6235 C   0  0  0  0  0  0  0  0  0  0  0  0
   21.4740  -10.8912  -18.2733 C   0  0  0  0  0  0  0  0  0  0  0  0
   20.3830  -10.9865  -17.6803 O   0  0  0  0  0  0  0  0  0  0  0  0
   26.0610  -10.4173  -14.9239 C   0  0  0  0  0  0  0  0  0  0  0  0
   24.9940   -9.9129  -15.8583 C   0  0  0  0  0  0  0  0  0  0  0  0
   23.5957  -10.2018  -15.4340 C   0  0  2  0  0  0  0  0  0  0  0  0
   23.3844  -11.6622  -15.0794 C   0  0  0  0  0  0  0  0  0  0  0  0
   22.5107   -9.6588  -16.3234 C   0  0  2  0  0  0  0  0  0  0  0  0
   22.5455  -10.2152  -17.6476 N   0  0  0  0  0  0  0  0  0  0  0  0
   22.4467   -8.1992  -16.2989 C   0  0  0  0  0  0  0  0  0  0  0  0
   23.0819   -7.5096  -17.1266 O   0  0  0  0  0  0  0  0  0  0  0  0
   21.6646   -7.5268  -15.3393 N   0  0  0  0  0  0  0  0  0  0  0  0
   21.6925   -6.0777  -15.2467 C   0  0  1  0  0  0  0  0  0  0  0  0
   20.2566   -5.5724  -15.4610 C   0  0  0  0  0  0  0  0  0  0  0  0
   20.3226   -3.7679  -15.3192 S   0  0  0  0  0  0  0  0  0  0  0  0
   22.2408   -5.5963  -13.9833 C   0  0  0  0  0  0  0  0  0  0  0  0
   22.9700   -4.4285  -13.9428 O   0  0  0  0  0  0  0  0  0  0  0  0
   22.0575   -6.2330  -12.9265 O   0  0  0  0  0  0  0  0  0  0  0  0
  2  1  1  0
  3  2  1  0
  4  3  2  0
  5  6  1  0
  7  6  1  0
  7  8  1  6
  9 10  1  6
  9  7  1  0
 10  3  1  0
 11  9  1  0
 12 11  2  0
 13 11  1  0
 14 15  1  1
 14 13  1  0
 16 15  1  0
 17 18  1  0
 17 14  1  0
 19 17  2  0
M  END
$$$$
