GIC.pdb
     RDKit          3D

 19 18  0  0  1  0  0  0  0  0999 V2000
   28.6774  -19.8878  -16.1640 N   0  0  0  0  0  0  0  0  0  0  0  0
   27.9312  -19.2907  -15.0582 C   0  0  0  0  0  0  0  0  0  0  0  0
   26.9482  -20.2784  -14.5454 C   0  0  0  0  0  0  0  0  0  0  0  0
   26.7253  -21.3100  -15.2066 O   0  0  0  0  0  0  0  0  0  0  0  0
   25.2409  -20.4827   -8.9147 C   0  0  0  0  0  0  0  0  0  0  0  0
   25.1154  -20.1454  -10.3764 C   0  0  0  0  0  0  0  0  0  0  0  0
   25.4980  -21.2399  -11.3116 C   0  0  2  0  0  0  0  0  0  0  0  0
   26.8798  -21.7969  -11.0225 C   0  0  0  0  0  0  0  0  0  0  0  0
   25.2786  -20.9649  -12.7743 C   0  0  2  0  0  0  0  0  0  0  0  0
   26.2618  -20.0750  -13.3271 N   0  0  0  0  0  0  0  0  0  0  0  0
   23.9009  -20.5776  -13.0692 C   0  0  0  0  0  0  0  0  0  0  0  0
   23.5071  -19.4035  -12.8946 O   0  0  0  0  0  0  0  0  0  0  0  0
   22.9756  -21.5195  -13.5606 N   0  0  0  0  0  0  0  0  0  0  0  0
   21.6197  -21.1195  -13.8932 C   0  0  1  0  0  0  0  0  0  0  0  0
   21.1801  -21.9441  -15.1139 C   0  0  0  0  0  0  0  0  0  0  0  0
   22.3647  -21.5757  -16.4338 S   0  0  0  0  0  0  0  0  0  0  0  0
   20.6877  -21.2795  -12.7822 C   0  0  0  0  0  0  0  0  0  0  0  0
   19.5584  -20.4949  -12.7045 O   0  0  0  0  0  0  0  0  0  0  0  0
   20.9000  -22.1258  -11.8908 O   0  0  0  0  0  0  0  0  0  0  0  0
  2  1  1  0
  3  2  1  0
  4  3  2  0
  5  6  1  0
  7  6  1  0
  7  8  1  6
  9 10  1  1
  9  7  1  0
 10  3  1  0
 11  9  1  0
 12 11  2  0
 13 11  1  0
 14 15  1  6
 14 13  1  0
 16 15  1  0
 17 18  1  0
 17 14  1  0
 19 17  2  0
M  END
$$$$
