GIC.pdb
     RDKit          3D

 19 18  0  0  1  0  0  0  0  0999 V2000
   28.4310  -20.3142  -17.0108 N   0  0  0  0  0  0  0  0  0  0  0  0
   27.8951  -19.4994  -15.9221 C   0  0  0  0  0  0  0  0  0  0  0  0
   27.0983  -20.3634  -15.0147 C   0  0  0  0  0  0  0  0  0  0  0  0
   26.5717  -21.3962  -15.4699 O   0  0  0  0  0  0  0  0  0  0  0  0
   28.5957  -21.0488   -9.8253 C   0  0  0  0  0  0  0  0  0  0  0  0
   28.0289  -21.1624  -11.2152 C   0  0  0  0  0  0  0  0  0  0  0  0
   26.5912  -20.7939  -11.3423 C   0  0  2  0  0  0  0  0  0  0  0  0
   25.7008  -21.5900  -10.4060 C   0  0  0  0  0  0  0  0  0  0  0  0
   26.0478  -20.7299  -12.7436 C   0  0  2  0  0  0  0  0  0  0  0  0
   26.9244  -20.0412  -13.6499 N   0  0  0  0  0  0  0  0  0  0  0  0
   24.6661  -20.2564  -12.7858 C   0  0  0  0  0  0  0  0  0  0  0  0
   24.3999  -19.0345  -12.7678 O   0  0  0  0  0  0  0  0  0  0  0  0
   23.5926  -21.1664  -12.8487 N   0  0  0  0  0  0  0  0  0  0  0  0
   22.2472  -20.7036  -13.1399 C   0  0  1  0  0  0  0  0  0  0  0  0
   22.2036  -20.3131  -14.6261 C   0  0  0  0  0  0  0  0  0  0  0  0
   20.4918  -19.8389  -14.9807 S   0  0  0  0  0  0  0  0  0  0  0  0
   21.2216  -21.6909  -12.8211 C   0  0  0  0  0  0  0  0  0  0  0  0
   20.0453  -21.3011  -12.2199 O   0  0  0  0  0  0  0  0  0  0  0  0
   21.3951  -22.8970  -13.0875 O   0  0  0  0  0  0  0  0  0  0  0  0
  2  1  1  0
  3  2  1  0
  4  3  2  0
  5  6  1  0
  7  6  1  0
  7  8  1  1
  9 10  1  6
  9  7  1  0
 10  3  1  0
 11  9  1  0
 12 11  2  0
 13 11  1  0
 14 15  1  6
 14 13  1  0
 16 15  1  0
 17 18  1  0
 17 14  1  0
 19 17  2  0
M  END
$$$$
