LWE.pdb
     RDKit          3D

 32 33  0  0  1  0  0  0  0  0999 V2000
   30.2381  -20.8589  -17.9242 C   0  0  0  0  0  0  0  0  0  0  0  0
   28.9284  -21.6150  -18.1345 C   0  0  2  0  0  0  0  0  0  0  0  0
   28.3123  -21.1428  -19.4085 C   0  0  0  0  0  0  0  0  0  0  0  0
   28.0692  -21.4005  -16.9334 C   0  0  0  0  0  0  0  0  0  0  0  0
   28.6492  -21.8319  -15.6317 C   0  0  2  0  0  0  0  0  0  0  0  0
   29.1648  -23.2002  -15.8301 N   0  0  0  0  0  0  0  0  0  0  0  0
   27.6912  -21.8185  -14.4914 C   0  0  0  0  0  0  0  0  0  0  0  0
   26.4772  -22.0751  -14.6729 O   0  0  0  0  0  0  0  0  0  0  0  0
   28.0920  -21.5207  -13.1646 N   0  0  0  0  0  0  0  0  0  0  0  0
   27.1806  -21.4366  -12.0310 C   0  0  1  0  0  0  0  0  0  0  0  0
   27.9124  -21.2601  -10.7470 C   0  0  0  0  0  0  0  0  0  0  0  0
   27.1377  -20.8768   -9.5856 C   0  0  0  0  0  0  0  0  0  0  0  0
   25.7462  -20.8426   -9.5512 C   0  0  0  0  0  0  0  0  0  0  0  0
   25.3164  -20.4603   -8.3436 N   0  0  0  0  0  0  0  0  0  0  0  0
   26.4051  -20.2419   -7.5814 C   0  0  0  0  0  0  0  0  0  0  0  0
   26.5012  -19.8339   -6.2682 C   0  0  0  0  0  0  0  0  0  0  0  0
   27.7358  -19.6630   -5.6577 C   0  0  0  0  0  0  0  0  0  0  0  0
   28.8602  -19.9145   -6.4083 C   0  0  0  0  0  0  0  0  0  0  0  0
   28.7520  -20.3211   -7.7175 C   0  0  0  0  0  0  0  0  0  0  0  0
   27.5359  -20.4986   -8.3468 C   0  0  0  0  0  0  0  0  0  0  0  0
   26.0309  -20.5665  -12.2822 C   0  0  0  0  0  0  0  0  0  0  0  0
   26.2786  -19.4192  -12.7891 O   0  0  0  0  0  0  0  0  0  0  0  0
   24.6937  -20.8714  -12.0285 N   0  0  0  0  0  0  0  0  0  0  0  0
   23.5482  -20.1029  -12.5659 C   0  0  1  0  0  0  0  0  0  0  0  0
   23.6332  -20.0900  -14.0425 C   0  0  0  0  0  0  0  0  0  0  0  0
   22.5281  -19.4638  -14.7840 C   0  0  0  0  0  0  0  0  0  0  0  0
   22.5605  -19.4778  -16.2465 C   0  0  0  0  0  0  0  0  0  0  0  0
   22.9231  -20.5154  -16.8528 O   0  0  0  0  0  0  0  0  0  0  0  0
   22.3540  -20.7217  -12.0277 C   0  0  0  0  0  0  0  0  0  0  0  0
   22.3379  -21.9762  -11.7808 O   0  0  0  0  0  0  0  0  0  0  0  0
   22.1965  -18.3745  -17.0012 O   0  0  0  0  0  0  0  0  0  0  0  0
   21.1634  -20.0666  -11.7264 O   0  0  0  0  0  0  0  0  0  0  0  0
  2  3  1  6
  2  1  1  0
  4  2  1  0
  5  6  1  6
  5  4  1  0
  7  8  2  0
  7  5  1  0
  9  7  1  0
 10  9  1  0
 10 21  1  0
 10 11  1  1
 12 11  1  0
 13 12  2  0
 14 13  1  0
 15 14  1  0
 15 20  2  0
 16 15  1  0
 17 16  2  0
 17 18  1  0
 18 19  2  0
 19 20  1  0
 20 12  1  0
 21 23  1  0
 22 21  2  0
 23 24  1  0
 24 25  1  6
 24 29  1  0
 26 25  1  0
 27 31  1  0
 27 26  1  0
 28 27  2  0
 29 30  2  0
 29 32  1  0
M  END
$$$$
