LWE.pdb
     RDKit          3D

 32 33  0  0  1  0  0  0  0  0999 V2000
   29.1726  -18.3110  -15.7366 C   0  0  0  0  0  0  0  0  0  0  0  0
   27.8066  -18.7141  -16.2868 C   0  0  2  0  0  0  0  0  0  0  0  0
   27.1802  -17.5145  -16.9150 C   0  0  0  0  0  0  0  0  0  0  0  0
   27.0076  -19.2954  -15.1685 C   0  0  0  0  0  0  0  0  0  0  0  0
   27.6486  -20.4127  -14.4218 C   0  0  2  0  0  0  0  0  0  0  0  0
   27.6833  -21.5695  -15.3372 N   0  0  0  0  0  0  0  0  0  0  0  0
   26.9548  -20.7936  -13.1601 C   0  0  0  0  0  0  0  0  0  0  0  0
   25.8246  -21.3361  -13.1903 O   0  0  0  0  0  0  0  0  0  0  0  0
   27.5234  -20.5678  -11.8813 N   0  0  0  0  0  0  0  0  0  0  0  0
   26.8217  -20.7788  -10.6219 C   0  0  1  0  0  0  0  0  0  0  0  0
   27.7001  -20.5136   -9.4501 C   0  0  0  0  0  0  0  0  0  0  0  0
   27.0835  -20.5178   -8.1403 C   0  0  0  0  0  0  0  0  0  0  0  0
   25.8116  -21.0197   -7.8772 C   0  0  0  0  0  0  0  0  0  0  0  0
   25.5180  -20.8955   -6.5781 N   0  0  0  0  0  0  0  0  0  0  0  0
   26.5785  -20.3186   -5.9811 C   0  0  0  0  0  0  0  0  0  0  0  0
   26.7748  -19.9753   -4.6605 C   0  0  0  0  0  0  0  0  0  0  0  0
   27.9556  -19.3784   -4.2415 C   0  0  0  0  0  0  0  0  0  0  0  0
   28.9231  -19.1409   -5.1893 C   0  0  0  0  0  0  0  0  0  0  0  0
   28.7161  -19.4877   -6.5039 C   0  0  0  0  0  0  0  0  0  0  0  0
   27.5508  -20.0826   -6.9451 C   0  0  0  0  0  0  0  0  0  0  0  0
   25.4787  -20.1973  -10.6088 C   0  0  0  0  0  0  0  0  0  0  0  0
   25.4050  -18.9211  -10.6246 O   0  0  0  0  0  0  0  0  0  0  0  0
   24.2746  -20.9010  -10.5880 N   0  0  0  0  0  0  0  0  0  0  0  0
   22.9499  -20.2919  -10.8444 C   0  0  1  0  0  0  0  0  0  0  0  0
   22.5099  -20.6631  -12.2068 C   0  0  0  0  0  0  0  0  0  0  0  0
   22.5707  -19.6275  -13.2494 C   0  0  0  0  0  0  0  0  0  0  0  0
   22.0697  -19.9411  -14.5876 C   0  0  0  0  0  0  0  0  0  0  0  0
   21.6213  -21.0875  -14.8332 O   0  0  0  0  0  0  0  0  0  0  0  0
   22.0805  -20.7429   -9.7770 C   0  0  0  0  0  0  0  0  0  0  0  0
   22.4167  -21.7445   -9.0567 O   0  0  0  0  0  0  0  0  0  0  0  0
   22.0661  -19.0061  -15.6098 O   0  0  0  0  0  0  0  0  0  0  0  0
   20.8606  -20.1723   -9.4252 O   0  0  0  0  0  0  0  0  0  0  0  0
  2  3  1  1
  2  1  1  0
  4  2  1  0
  5  6  1  6
  5  4  1  0
  7  8  2  0
  7  5  1  0
  9  7  1  0
 10  9  1  0
 10 21  1  0
 10 11  1  1
 12 11  1  0
 13 12  2  0
 14 13  1  0
 15 14  1  0
 15 20  2  0
 16 15  1  0
 17 16  2  0
 17 18  1  0
 18 19  2  0
 19 20  1  0
 20 12  1  0
 21 23  1  0
 22 21  2  0
 23 24  1  0
 24 25  1  6
 24 29  1  0
 26 25  1  0
 27 31  1  0
 27 26  1  0
 28 27  2  0
 29 30  2  0
 29 32  1  0
M  END
$$$$
