LWE.pdb
     RDKit          3D

 32 33  0  0  1  0  0  0  0  0999 V2000
   28.7880  -23.7259  -18.3680 C   0  0  0  0  0  0  0  0  0  0  0  0
   29.6018  -23.2193  -17.1796 C   0  0  2  0  0  0  0  0  0  0  0  0
   30.7786  -24.1183  -16.9984 C   0  0  0  0  0  0  0  0  0  0  0  0
   28.7014  -23.1580  -15.9912 C   0  0  0  0  0  0  0  0  0  0  0  0
   27.5268  -22.2507  -16.1097 C   0  0  2  0  0  0  0  0  0  0  0  0
   28.0536  -20.9200  -16.4692 N   0  0  0  0  0  0  0  0  0  0  0  0
   26.6984  -22.1446  -14.8765 C   0  0  0  0  0  0  0  0  0  0  0  0
   26.2669  -23.1743  -14.3054 O   0  0  0  0  0  0  0  0  0  0  0  0
   26.3593  -20.8981  -14.2928 N   0  0  0  0  0  0  0  0  0  0  0  0
   25.6218  -20.7494  -13.0450 C   0  0  1  0  0  0  0  0  0  0  0  0
   26.3108  -19.8247  -12.1040 C   0  0  0  0  0  0  0  0  0  0  0  0
   27.3036  -20.3939  -11.2174 C   0  0  0  0  0  0  0  0  0  0  0  0
   28.4761  -21.0084  -11.6492 C   0  0  0  0  0  0  0  0  0  0  0  0
   29.1982  -21.4272  -10.6041 N   0  0  0  0  0  0  0  0  0  0  0  0
   28.5182  -21.0977   -9.4893 C   0  0  0  0  0  0  0  0  0  0  0  0
   28.8322  -21.3086   -8.1637 C   0  0  0  0  0  0  0  0  0  0  0  0
   27.9839  -20.8882   -7.1490 C   0  0  0  0  0  0  0  0  0  0  0  0
   26.8189  -20.2539   -7.5115 C   0  0  0  0  0  0  0  0  0  0  0  0
   26.5162  -20.0489   -8.8372 C   0  0  0  0  0  0  0  0  0  0  0  0
   27.3436  -20.4574   -9.8644 C   0  0  0  0  0  0  0  0  0  0  0  0
   24.1839  -20.5654  -13.2467 C   0  0  0  0  0  0  0  0  0  0  0  0
   23.8323  -19.7008  -14.1203 O   0  0  0  0  0  0  0  0  0  0  0  0
   23.1634  -21.2465  -12.5833 N   0  0  0  0  0  0  0  0  0  0  0  0
   21.7199  -21.0221  -12.8233 C   0  0  1  0  0  0  0  0  0  0  0  0
   21.0201  -22.3242  -12.7743 C   0  0  0  0  0  0  0  0  0  0  0  0
   19.5806  -22.3368  -13.0752 C   0  0  0  0  0  0  0  0  0  0  0  0
   18.8926  -23.6231  -13.1861 C   0  0  0  0  0  0  0  0  0  0  0  0
   19.5461  -24.6905  -13.0903 O   0  0  0  0  0  0  0  0  0  0  0  0
   21.2872  -20.0578  -11.8324 C   0  0  0  0  0  0  0  0  0  0  0  0
   21.8945  -19.9759  -10.7101 O   0  0  0  0  0  0  0  0  0  0  0  0
   17.5254  -23.7111  -13.3915 O   0  0  0  0  0  0  0  0  0  0  0  0
   20.2346  -19.1588  -11.9774 O   0  0  0  0  0  0  0  0  0  0  0  0
  2  3  1  1
  2  1  1  0
  4  2  1  0
  5  6  1  1
  5  4  1  0
  7  8  2  0
  7  5  1  0
  9  7  1  0
 10  9  1  0
 10 21  1  0
 10 11  1  6
 12 11  1  0
 13 12  2  0
 14 13  1  0
 15 14  1  0
 15 20  2  0
 16 15  1  0
 17 16  2  0
 17 18  1  0
 18 19  2  0
 19 20  1  0
 20 12  1  0
 21 23  1  0
 22 21  2  0
 23 24  1  0
 24 25  1  1
 24 29  1  0
 26 25  1  0
 27 31  1  0
 27 26  1  0
 28 27  2  0
 29 30  2  0
 29 32  1  0
M  END
$$$$
