LWE.pdb
     RDKit          3D

 32 33  0  0  1  0  0  0  0  0999 V2000
   28.1772  -22.3694  -19.5079 C   0  0  0  0  0  0  0  0  0  0  0  0
   29.1477  -22.6199  -18.3562 C   0  0  2  0  0  0  0  0  0  0  0  0
   30.0397  -23.7554  -18.7316 C   0  0  0  0  0  0  0  0  0  0  0  0
   28.3492  -22.8640  -17.1194 C   0  0  0  0  0  0  0  0  0  0  0  0
   27.4981  -21.7323  -16.6593 C   0  0  2  0  0  0  0  0  0  0  0  0
   28.3626  -20.5369  -16.6285 N   0  0  0  0  0  0  0  0  0  0  0  0
   26.8714  -21.9313  -15.3230 C   0  0  0  0  0  0  0  0  0  0  0  0
   26.1834  -22.9525  -15.0848 O   0  0  0  0  0  0  0  0  0  0  0  0
   27.0156  -20.9953  -14.2681 N   0  0  0  0  0  0  0  0  0  0  0  0
   26.3742  -21.1207  -12.9659 C   0  0  1  0  0  0  0  0  0  0  0  0
   27.1904  -20.4998  -11.8872 C   0  0  0  0  0  0  0  0  0  0  0  0
   26.5946  -20.4053  -10.5711 C   0  0  0  0  0  0  0  0  0  0  0  0
   25.2313  -20.2406  -10.3407 C   0  0  0  0  0  0  0  0  0  0  0  0
   24.9798  -20.1962   -9.0277 N   0  0  0  0  0  0  0  0  0  0  0  0
   26.1582  -20.3292   -8.3892 C   0  0  0  0  0  0  0  0  0  0  0  0
   26.4390  -20.3460   -7.0398 C   0  0  0  0  0  0  0  0  0  0  0  0
   27.7396  -20.4934   -6.5786 C   0  0  0  0  0  0  0  0  0  0  0  0
   28.7389  -20.6221   -7.5144 C   0  0  0  0  0  0  0  0  0  0  0  0
   28.4468  -20.6039   -8.8581 C   0  0  0  0  0  0  0  0  0  0  0  0
   27.1616  -20.4589   -9.3415 C   0  0  0  0  0  0  0  0  0  0  0  0
   24.9441  -20.8115  -12.9983 C   0  0  0  0  0  0  0  0  0  0  0  0
   24.6133  -19.6722  -13.4748 O   0  0  0  0  0  0  0  0  0  0  0  0
   23.9099  -21.6420  -12.5666 N   0  0  0  0  0  0  0  0  0  0  0  0
   22.4899  -21.4697  -12.9478 C   0  0  1  0  0  0  0  0  0  0  0  0
   21.9071  -22.7995  -13.2300 C   0  0  0  0  0  0  0  0  0  0  0  0
   20.4981  -22.8520  -13.6487 C   0  0  0  0  0  0  0  0  0  0  0  0
   19.9035  -24.1498  -13.9687 C   0  0  0  0  0  0  0  0  0  0  0  0
   20.5970  -25.1925  -13.8815 O   0  0  0  0  0  0  0  0  0  0  0  0
   21.8616  -20.7448  -11.8622 C   0  0  0  0  0  0  0  0  0  0  0  0
   22.2261  -20.9562  -10.6550 O   0  0  0  0  0  0  0  0  0  0  0  0
   18.5824  -24.2760  -14.3662 O   0  0  0  0  0  0  0  0  0  0  0  0
   20.8591  -19.7883  -11.9953 O   0  0  0  0  0  0  0  0  0  0  0  0
  2  3  1  6
  2  1  1  0
  4  2  1  0
  5  6  1  1
  5  4  1  0
  7  8  2  0
  7  5  1  0
  9  7  1  0
 10  9  1  0
 10 21  1  0
 10 11  1  1
 12 11  1  0
 13 12  2  0
 14 13  1  0
 15 14  1  0
 15 20  2  0
 16 15  1  0
 17 16  2  0
 17 18  1  0
 18 19  2  0
 19 20  1  0
 20 12  1  0
 21 23  1  0
 22 21  2  0
 23 24  1  0
 24 25  1  1
 24 29  1  0
 26 25  1  0
 27 31  1  0
 27 26  1  0
 28 27  2  0
 29 30  2  0
 29 32  1  0
M  END
$$$$
