LWE.pdb
     RDKit          3D

 32 33  0  0  1  0  0  0  0  0999 V2000
   28.5077  -21.6018  -20.5170 C   0  0  0  0  0  0  0  0  0  0  0  0
   29.4984  -20.9718  -19.5410 C   0  0  2  0  0  0  0  0  0  0  0  0
   30.8694  -21.4433  -19.8930 C   0  0  0  0  0  0  0  0  0  0  0  0
   29.0759  -21.3274  -18.1547 C   0  0  0  0  0  0  0  0  0  0  0  0
   27.6773  -20.9719  -17.7882 C   0  0  2  0  0  0  0  0  0  0  0  0
   27.5321  -19.5228  -18.0258 N   0  0  0  0  0  0  0  0  0  0  0  0
   27.3057  -21.2881  -16.3811 C   0  0  0  0  0  0  0  0  0  0  0  0
   27.3962  -22.4599  -15.9436 O   0  0  0  0  0  0  0  0  0  0  0  0
   26.8384  -20.3008  -15.4774 N   0  0  0  0  0  0  0  0  0  0  0  0
   26.4933  -20.5592  -14.0857 C   0  0  1  0  0  0  0  0  0  0  0  0
   27.3407  -19.7690  -13.1515 C   0  0  0  0  0  0  0  0  0  0  0  0
   27.6827  -20.3788  -11.8838 C   0  0  0  0  0  0  0  0  0  0  0  0
   28.7701  -21.2273  -11.6932 C   0  0  0  0  0  0  0  0  0  0  0  0
   28.8360  -21.6257  -10.4180 N   0  0  0  0  0  0  0  0  0  0  0  0
   27.8072  -21.0518   -9.7652 C   0  0  0  0  0  0  0  0  0  0  0  0
   27.4342  -21.1443   -8.4414 C   0  0  0  0  0  0  0  0  0  0  0  0
   26.3235  -20.4663   -7.9590 C   0  0  0  0  0  0  0  0  0  0  0  0
   25.6076  -19.6989   -8.8475 C   0  0  0  0  0  0  0  0  0  0  0  0
   25.9891  -19.6140  -10.1659 C   0  0  0  0  0  0  0  0  0  0  0  0
   27.0897  -20.2784  -10.6695 C   0  0  0  0  0  0  0  0  0  0  0  0
   25.0497  -20.5734  -13.8455 C   0  0  0  0  0  0  0  0  0  0  0  0
   24.4048  -19.5147  -14.1580 O   0  0  0  0  0  0  0  0  0  0  0  0
   24.3112  -21.6317  -13.3160 N   0  0  0  0  0  0  0  0  0  0  0  0
   22.8412  -21.6158  -13.1416 C   0  0  1  0  0  0  0  0  0  0  0  0
   22.3584  -23.0098  -13.0355 C   0  0  0  0  0  0  0  0  0  0  0  0
   20.9163  -23.2190  -12.8363 C   0  0  0  0  0  0  0  0  0  0  0  0
   20.0091  -23.0122  -13.9653 C   0  0  0  0  0  0  0  0  0  0  0  0
   20.3479  -23.3865  -15.1146 O   0  0  0  0  0  0  0  0  0  0  0  0
   22.5773  -20.7875  -11.9827 C   0  0  0  0  0  0  0  0  0  0  0  0
   23.4297  -20.7259  -11.0316 O   0  0  0  0  0  0  0  0  0  0  0  0
   18.7689  -22.4142  -13.8128 O   0  0  0  0  0  0  0  0  0  0  0  0
   21.4438  -20.0046  -11.7833 O   0  0  0  0  0  0  0  0  0  0  0  0
  2  3  1  6
  2  1  1  0
  4  2  1  0
  5  6  1  1
  5  4  1  0
  7  8  2  0
  7  5  1  0
  9  7  1  0
 10  9  1  0
 10 21  1  0
 10 11  1  1
 12 11  1  0
 13 12  2  0
 14 13  1  0
 15 14  1  0
 15 20  2  0
 16 15  1  0
 17 16  2  0
 17 18  1  0
 18 19  2  0
 19 20  1  0
 20 12  1  0
 21 23  1  0
 22 21  2  0
 23 24  1  0
 24 25  1  1
 24 29  1  0
 26 25  1  0
 27 31  1  0
 27 26  1  0
 28 27  2  0
 29 30  2  0
 29 32  1  0
M  END
$$$$
