LWE.pdb
     RDKit          3D

 32 33  0  0  1  0  0  0  0  0999 V2000
   20.4493  -12.0476  -20.3952 C   0  0  0  0  0  0  0  0  0  0  0  0
   19.7736  -12.4973  -19.1021 C   0  0  2  0  0  0  0  0  0  0  0  0
   18.3282  -12.7351  -19.3850 C   0  0  0  0  0  0  0  0  0  0  0  0
   20.0210  -11.4568  -18.0614 C   0  0  0  0  0  0  0  0  0  0  0  0
   21.4479  -11.1159  -17.8070 C   0  0  2  0  0  0  0  0  0  0  0  0
   22.0671  -12.3097  -17.1995 N   0  0  0  0  0  0  0  0  0  0  0  0
   21.6551   -9.9381  -16.9194 C   0  0  0  0  0  0  0  0  0  0  0  0
   20.9959   -9.8117  -15.8601 O   0  0  0  0  0  0  0  0  0  0  0  0
   22.5907   -8.9157  -17.2180 N   0  0  0  0  0  0  0  0  0  0  0  0
   22.7725   -7.7106  -16.4196 C   0  0  1  0  0  0  0  0  0  0  0  0
   24.2078   -7.4636  -16.1130 C   0  0  0  0  0  0  0  0  0  0  0  0
   24.9835   -8.5782  -15.6111 C   0  0  0  0  0  0  0  0  0  0  0  0
   24.5881   -9.3913  -14.5522 C   0  0  0  0  0  0  0  0  0  0  0  0
   25.5027  -10.3401  -14.3229 N   0  0  0  0  0  0  0  0  0  0  0  0
   26.4956  -10.1638  -15.2157 C   0  0  0  0  0  0  0  0  0  0  0  0
   27.6635  -10.8736  -15.3951 C   0  0  0  0  0  0  0  0  0  0  0  0
   28.5710  -10.5248  -16.3855 C   0  0  0  0  0  0  0  0  0  0  0  0
   28.2649   -9.4463  -17.1818 C   0  0  0  0  0  0  0  0  0  0  0  0
   27.0967   -8.7457  -16.9935 C   0  0  0  0  0  0  0  0  0  0  0  0
   26.1783   -9.0731  -16.0158 C   0  0  0  0  0  0  0  0  0  0  0  0
   21.9763   -6.5796  -16.8981 C   0  0  0  0  0  0  0  0  0  0  0  0
   22.2566   -6.1312  -18.0621 O   0  0  0  0  0  0  0  0  0  0  0  0
   20.9389   -5.9504  -16.2101 N   0  0  0  0  0  0  0  0  0  0  0  0
   20.1006   -4.8690  -16.7753 C   0  0  1  0  0  0  0  0  0  0  0  0
   18.6942   -5.3254  -16.8121 C   0  0  0  0  0  0  0  0  0  0  0  0
   17.6782   -4.3680  -17.2748 C   0  0  0  0  0  0  0  0  0  0  0  0
   16.2722   -4.7723  -17.2714 C   0  0  0  0  0  0  0  0  0  0  0  0
   15.7756   -5.3120  -18.2902 O   0  0  0  0  0  0  0  0  0  0  0  0
   20.3419   -3.6972  -15.9583 C   0  0  0  0  0  0  0  0  0  0  0  0
   20.5528   -3.8234  -14.7035 O   0  0  0  0  0  0  0  0  0  0  0  0
   15.4550   -4.5841  -16.1687 O   0  0  0  0  0  0  0  0  0  0  0  0
   20.3795   -2.3822  -16.4128 O   0  0  0  0  0  0  0  0  0  0  0  0
  2  3  1  6
  2  1  1  0
  4  2  1  0
  5  6  1  1
  5  4  1  0
  7  8  2  0
  7  5  1  0
  9  7  1  0
 10  9  1  0
 10 21  1  0
 10 11  1  6
 12 11  1  0
 13 12  2  0
 14 13  1  0
 15 14  1  0
 15 20  2  0
 16 15  1  0
 17 16  2  0
 17 18  1  0
 18 19  2  0
 19 20  1  0
 20 12  1  0
 21 23  1  0
 22 21  2  0
 23 24  1  0
 24 25  1  1
 24 29  1  0
 26 25  1  0
 27 31  1  0
 27 26  1  0
 28 27  2  0
 29 30  2  0
 29 32  1  0
M  END
$$$$
