LWE.pdb
     RDKit          3D

 32 33  0  0  1  0  0  0  0  0999 V2000
   14.5359  -21.9984    1.8600 C   0  0  0  0  0  0  0  0  0  0  0  0
   14.2062  -20.5423    2.1794 C   0  0  2  0  0  0  0  0  0  0  0  0
   13.2237  -20.0505    1.1701 C   0  0  0  0  0  0  0  0  0  0  0  0
   15.4831  -19.7705    2.2036 C   0  0  0  0  0  0  0  0  0  0  0  0
   16.3644  -20.0055    3.3804 C   0  0  2  0  0  0  0  0  0  0  0  0
   15.5034  -20.5343    4.4559 N   0  0  0  0  0  0  0  0  0  0  0  0
   17.0859  -18.7963    3.8659 C   0  0  0  0  0  0  0  0  0  0  0  0
   17.5917  -17.9846    3.0547 O   0  0  0  0  0  0  0  0  0  0  0  0
   17.2371  -18.5031    5.2446 N   0  0  0  0  0  0  0  0  0  0  0  0
   17.6229  -17.1997    5.7692 C   0  0  1  0  0  0  0  0  0  0  0  0
   16.8966  -16.0939    5.0872 C   0  0  0  0  0  0  0  0  0  0  0  0
   17.6675  -14.9337    4.6927 C   0  0  0  0  0  0  0  0  0  0  0  0
   17.6397  -13.7129    5.3617 C   0  0  0  0  0  0  0  0  0  0  0  0
   18.4602  -12.8364    4.7720 N   0  0  0  0  0  0  0  0  0  0  0  0
   19.0285  -13.4622    3.7236 C   0  0  0  0  0  0  0  0  0  0  0  0
   19.9408  -12.9969    2.8008 C   0  0  0  0  0  0  0  0  0  0  0  0
   20.4083  -13.8117    1.7792 C   0  0  0  0  0  0  0  0  0  0  0  0
   19.9298  -15.0994    1.7190 C   0  0  0  0  0  0  0  0  0  0  0  0
   19.0199  -15.5526    2.6452 C   0  0  0  0  0  0  0  0  0  0  0  0
   18.5402  -14.7619    3.6704 C   0  0  0  0  0  0  0  0  0  0  0  0
   17.6918  -17.1667    7.2307 C   0  0  0  0  0  0  0  0  0  0  0  0
   16.6947  -17.6557    7.8640 O   0  0  0  0  0  0  0  0  0  0  0  0
   18.7418  -16.6602    7.9965 N   0  0  0  0  0  0  0  0  0  0  0  0
   18.8612  -16.8312    9.4621 C   0  0  1  0  0  0  0  0  0  0  0  0
   20.2612  -17.1781    9.7895 C   0  0  0  0  0  0  0  0  0  0  0  0
   20.6120  -17.3308   11.2096 C   0  0  0  0  0  0  0  0  0  0  0  0
   21.7840  -18.1304   11.5664 C   0  0  0  0  0  0  0  0  0  0  0  0
   22.0098  -18.4039   12.7705 O   0  0  0  0  0  0  0  0  0  0  0  0
   18.3814  -15.6001   10.0563 C   0  0  0  0  0  0  0  0  0  0  0  0
   18.3395  -14.5272    9.3619 O   0  0  0  0  0  0  0  0  0  0  0  0
   22.6664  -18.6094   10.6118 O   0  0  0  0  0  0  0  0  0  0  0  0
   17.9301  -15.4499   11.3644 O   0  0  0  0  0  0  0  0  0  0  0  0
  2  3  1  6
  2  1  1  0
  4  2  1  0
  5  6  1  1
  5  4  1  0
  7  8  2  0
  7  5  1  0
  9  7  1  0
 10  9  1  0
 10 21  1  0
 10 11  1  1
 12 11  1  0
 13 12  2  0
 14 13  1  0
 15 14  1  0
 15 20  2  0
 16 15  1  0
 17 16  2  0
 17 18  1  0
 18 19  2  0
 19 20  1  0
 20 12  1  0
 21 23  1  0
 22 21  2  0
 23 24  1  0
 24 25  1  6
 24 29  1  0
 26 25  1  0
 27 31  1  0
 27 26  1  0
 28 27  2  0
 29 30  2  0
 29 32  1  0
M  END
$$$$
