MCS.pdb
     RDKit          3D

 21 20  0  0  1  0  0  0  0  0999 V2000
    5.4973  -12.0128   26.6907 C   0  0  0  0  0  0  0  0  0  0  0  0
    7.2369  -12.4502   26.7495 S   0  0  0  0  0  0  0  0  0  0  0  0
    7.5305  -14.0135   27.6123 C   0  0  0  0  0  0  0  0  0  0  0  0
    8.2577  -15.0132   26.7185 C   0  0  0  0  0  0  0  0  0  0  0  0
    7.1907  -15.8308   26.0308 C   0  0  2  0  0  0  0  0  0  0  0  0
    7.0393  -17.0562   26.7879 N   0  0  0  0  0  0  0  0  0  0  0  0
    7.4893  -16.0807   24.6066 C   0  0  0  0  0  0  0  0  0  0  0  0
    8.0349  -17.1743   24.3053 O   0  0  0  0  0  0  0  0  0  0  0  0
    7.2164  -15.1997   23.5504 N   0  0  0  0  0  0  0  0  0  0  0  0
    7.7672  -15.2852   22.2196 C   0  0  1  0  0  0  0  0  0  0  0  0
    7.3791  -14.1447   21.3335 C   0  0  0  0  0  0  0  0  0  0  0  0
    8.1064  -14.3985   19.6747 S   0  0  0  0  0  0  0  0  0  0  0  0
    9.2474  -15.3921   22.2379 C   0  0  0  0  0  0  0  0  0  0  0  0
    9.9791  -14.5033   22.7639 O   0  0  0  0  0  0  0  0  0  0  0  0
   10.8645  -18.9940   21.9439 O   0  0  0  0  0  0  0  0  0  0  0  0
   11.6990  -17.9453   22.3008 C   0  0  0  0  0  0  0  0  0  0  0  0
   11.3267  -16.6583   21.6023 C   0  0  2  0  0  0  0  0  0  0  0  0
    9.8774  -16.5215   21.6509 N   0  0  0  0  0  0  0  0  0  0  0  0
   11.8092  -16.7361   20.1987 C   0  0  0  0  0  0  0  0  0  0  0  0
   13.1605  -16.8819   19.9218 O   0  0  0  0  0  0  0  0  0  0  0  0
   11.0330  -16.6749   19.2142 O   0  0  0  0  0  0  0  0  0  0  0  0
  2  1  1  0
  3  4  1  0
  3  2  1  0
  4  5  1  0
  5  7  1  0
  5  6  1  1
  7  8  2  0
  9 10  1  0
  9  7  1  0
 10 13  1  0
 10 11  1  6
 12 11  1  0
 13 14  2  0
 13 18  1  0
 16 15  1  0
 17 16  1  1
 18 17  1  0
 19 20  1  0
 19 17  1  0
 21 19  2  0
M  END
$$$$
