MCS.pdb
     RDKit          3D

 21 20  0  0  1  0  0  0  0  0999 V2000
    6.4968  -22.1131   25.8495 C   0  0  0  0  0  0  0  0  0  0  0  0
    5.3435  -22.2651   24.4828 S   0  0  0  0  0  0  0  0  0  0  0  0
    4.8679  -20.6605   23.7945 C   0  0  0  0  0  0  0  0  0  0  0  0
    6.0651  -19.7199   23.6997 C   0  0  0  0  0  0  0  0  0  0  0  0
    5.5368  -18.4018   23.1867 C   0  0  2  0  0  0  0  0  0  0  0  0
    5.1605  -18.6034   21.8028 N   0  0  0  0  0  0  0  0  0  0  0  0
    6.4993  -17.2947   23.3540 C   0  0  0  0  0  0  0  0  0  0  0  0
    7.2908  -17.0576   22.4045 O   0  0  0  0  0  0  0  0  0  0  0  0
    6.6107  -16.4766   24.4874 N   0  0  0  0  0  0  0  0  0  0  0  0
    7.7435  -15.6463   24.8179 C   0  0  1  0  0  0  0  0  0  0  0  0
    7.5264  -14.7832   26.0198 C   0  0  0  0  0  0  0  0  0  0  0  0
    6.0463  -13.7425   25.7524 S   0  0  0  0  0  0  0  0  0  0  0  0
    8.9766  -16.4465   25.0223 C   0  0  0  0  0  0  0  0  0  0  0  0
    9.0567  -17.3425   25.9128 O   0  0  0  0  0  0  0  0  0  0  0  0
   12.5089  -15.5200   22.8568 O   0  0  0  0  0  0  0  0  0  0  0  0
   12.0989  -16.8363   23.0070 C   0  0  0  0  0  0  0  0  0  0  0  0
   11.3036  -17.0438   24.2748 C   0  0  2  0  0  0  0  0  0  0  0  0
   10.1108  -16.2113   24.2006 N   0  0  0  0  0  0  0  0  0  0  0  0
   12.1573  -16.6527   25.4270 C   0  0  0  0  0  0  0  0  0  0  0  0
   13.3497  -17.3141   25.6811 O   0  0  0  0  0  0  0  0  0  0  0  0
   11.8472  -15.7231   26.2113 O   0  0  0  0  0  0  0  0  0  0  0  0
  2  1  1  0
  3  4  1  0
  3  2  1  0
  4  5  1  0
  5  7  1  0
  5  6  1  6
  7  8  2  0
  9 10  1  0
  9  7  1  0
 10 13  1  0
 10 11  1  1
 12 11  1  0
 13 14  2  0
 13 18  1  0
 16 15  1  0
 17 16  1  6
 18 17  1  0
 19 20  1  0
 19 17  1  0
 21 19  2  0
M  END
$$$$
