MCS.pdb
     RDKit          3D

 21 20  0  0  1  0  0  0  0  0999 V2000
    7.9314  -12.0634   18.0422 C   0  0  0  0  0  0  0  0  0  0  0  0
    7.0311  -13.5544   17.6090 S   0  0  0  0  0  0  0  0  0  0  0  0
    7.2494  -14.8752   18.8265 C   0  0  0  0  0  0  0  0  0  0  0  0
    7.9690  -14.3687   20.0725 C   0  0  0  0  0  0  0  0  0  0  0  0
    8.0636  -15.5400   21.0205 C   0  0  2  0  0  0  0  0  0  0  0  0
    6.7125  -15.8735   21.4216 N   0  0  0  0  0  0  0  0  0  0  0  0
    8.9451  -15.2732   22.1746 C   0  0  0  0  0  0  0  0  0  0  0  0
    9.2357  -14.0745   22.4254 O   0  0  0  0  0  0  0  0  0  0  0  0
    9.4921  -16.2459   23.0237 N   0  0  0  0  0  0  0  0  0  0  0  0
   10.4128  -15.9963   24.1062 C   0  0  1  0  0  0  0  0  0  0  0  0
    9.8146  -16.1948   25.4625 C   0  0  0  0  0  0  0  0  0  0  0  0
    8.3127  -15.1620   25.6133 S   0  0  0  0  0  0  0  0  0  0  0  0
   11.6353  -16.8308   23.9979 C   0  0  0  0  0  0  0  0  0  0  0  0
   11.6120  -18.0837   24.1761 O   0  0  0  0  0  0  0  0  0  0  0  0
   15.4568  -15.0140   23.4521 O   0  0  0  0  0  0  0  0  0  0  0  0
   15.0826  -16.1409   22.7354 C   0  0  0  0  0  0  0  0  0  0  0  0
   14.0949  -16.9962   23.4940 C   0  0  2  0  0  0  0  0  0  0  0  0
   12.8780  -16.2188   23.6848 N   0  0  0  0  0  0  0  0  0  0  0  0
   14.7050  -17.3625   24.7989 C   0  0  0  0  0  0  0  0  0  0  0  0
   15.8463  -18.1489   24.8507 O   0  0  0  0  0  0  0  0  0  0  0  0
   14.2268  -16.9857   25.8966 O   0  0  0  0  0  0  0  0  0  0  0  0
  2  1  1  0
  3  4  1  0
  3  2  1  0
  4  5  1  0
  5  7  1  0
  5  6  1  1
  7  8  2  0
  9 10  1  0
  9  7  1  0
 10 13  1  0
 10 11  1  1
 12 11  1  0
 13 14  2  0
 13 18  1  0
 16 15  1  0
 17 16  1  6
 18 17  1  0
 19 20  1  0
 19 17  1  0
 21 19  2  0
M  END
$$$$
