MCS.pdb
     RDKit          3D

 21 20  0  0  1  0  0  0  0  0999 V2000
    6.1289  -11.9707   26.0879 C   0  0  0  0  0  0  0  0  0  0  0  0
    7.0068  -13.2099   27.0444 S   0  0  0  0  0  0  0  0  0  0  0  0
    7.4167  -14.6776   26.0686 C   0  0  0  0  0  0  0  0  0  0  0  0
    6.4705  -14.8384   24.8829 C   0  0  0  0  0  0  0  0  0  0  0  0
    6.1912  -16.3166   24.7529 C   0  0  2  0  0  0  0  0  0  0  0  0
    6.9612  -16.9873   25.7800 N   0  0  0  0  0  0  0  0  0  0  0  0
    6.4789  -16.8373   23.4016 C   0  0  0  0  0  0  0  0  0  0  0  0
    5.5597  -17.4553   22.8037 O   0  0  0  0  0  0  0  0  0  0  0  0
    7.6964  -16.7031   22.7191 N   0  0  0  0  0  0  0  0  0  0  0  0
    8.1198  -15.5425   21.9737 C   0  0  1  0  0  0  0  0  0  0  0  0
    7.3025  -14.3204   22.2478 C   0  0  0  0  0  0  0  0  0  0  0  0
    7.5266  -13.1286   20.8787 S   0  0  0  0  0  0  0  0  0  0  0  0
    9.5496  -15.2227   22.2106 C   0  0  0  0  0  0  0  0  0  0  0  0
   10.1700  -14.3637   21.5182 O   0  0  0  0  0  0  0  0  0  0  0  0
   11.2310  -17.4108   25.0674 O   0  0  0  0  0  0  0  0  0  0  0  0
   12.0258  -16.3023   24.8160 C   0  0  0  0  0  0  0  0  0  0  0  0
   11.6632  -15.6249   23.5150 C   0  0  2  0  0  0  0  0  0  0  0  0
   10.2575  -15.8930   23.2433 N   0  0  0  0  0  0  0  0  0  0  0  0
   12.5301  -16.1827   22.4443 C   0  0  0  0  0  0  0  0  0  0  0  0
   13.9093  -16.0509   22.5100 O   0  0  0  0  0  0  0  0  0  0  0  0
   12.0661  -16.7885   21.4478 O   0  0  0  0  0  0  0  0  0  0  0  0
  2  1  1  0
  3  4  1  0
  3  2  1  0
  4  5  1  0
  5  7  1  0
  5  6  1  1
  7  8  2  0
  9 10  1  0
  9  7  1  0
 10 13  1  0
 10 11  1  1
 12 11  1  0
 13 14  2  0
 13 18  1  0
 16 15  1  0
 17 16  1  1
 18 17  1  0
 19 20  1  0
 19 17  1  0
 21 19  2  0
M  END
$$$$
