MCS.pdb
     RDKit          3D

 21 20  0  0  1  0  0  0  0  0999 V2000
    6.4619  -11.2914   26.3997 C   0  0  0  0  0  0  0  0  0  0  0  0
    6.1099  -13.0424   26.2238 S   0  0  0  0  0  0  0  0  0  0  0  0
    7.6053  -14.0598   26.2788 C   0  0  0  0  0  0  0  0  0  0  0  0
    7.2648  -15.5462   26.3181 C   0  0  0  0  0  0  0  0  0  0  0  0
    6.5722  -15.8634   25.0145 C   0  0  2  0  0  0  0  0  0  0  0  0
    5.7103  -17.0019   25.2562 N   0  0  0  0  0  0  0  0  0  0  0  0
    7.5182  -16.0974   23.9053 C   0  0  0  0  0  0  0  0  0  0  0  0
    8.2034  -17.1529   23.9322 O   0  0  0  0  0  0  0  0  0  0  0  0
    7.7227  -15.2401   22.8147 N   0  0  0  0  0  0  0  0  0  0  0  0
    8.6575  -15.4573   21.7373 C   0  0  1  0  0  0  0  0  0  0  0  0
    8.5792  -14.4271   20.6560 C   0  0  0  0  0  0  0  0  0  0  0  0
    7.4320  -13.0999   21.1732 S   0  0  0  0  0  0  0  0  0  0  0  0
   10.0575  -15.5313   22.2244 C   0  0  0  0  0  0  0  0  0  0  0  0
   10.9039  -14.6229   21.9782 O   0  0  0  0  0  0  0  0  0  0  0  0
   10.9747  -17.3201   25.6320 O   0  0  0  0  0  0  0  0  0  0  0  0
   11.8463  -17.7380   24.6375 C   0  0  0  0  0  0  0  0  0  0  0  0
   11.8496  -16.8006   23.4525 C   0  0  2  0  0  0  0  0  0  0  0  0
   10.4758  -16.6503   22.9924 N   0  0  0  0  0  0  0  0  0  0  0  0
   12.7058  -17.3952   22.3931 C   0  0  0  0  0  0  0  0  0  0  0  0
   14.0795  -17.4866   22.5617 O   0  0  0  0  0  0  0  0  0  0  0  0
   12.2372  -17.8354   21.3150 O   0  0  0  0  0  0  0  0  0  0  0  0
  2  1  1  0
  3  4  1  0
  3  2  1  0
  4  5  1  0
  5  7  1  0
  5  6  1  1
  7  8  2  0
  9 10  1  0
  9  7  1  0
 10 13  1  0
 10 11  1  6
 12 11  1  0
 13 14  2  0
 13 18  1  0
 16 15  1  0
 17 16  1  1
 18 17  1  0
 19 20  1  0
 19 17  1  0
 21 19  2  0
M  END
$$$$
