MCS.pdb
     RDKit          3D

 21 20  0  0  1  0  0  0  0  0999 V2000
    7.6379  -11.5181   27.0650 C   0  0  0  0  0  0  0  0  0  0  0  0
    6.0280  -11.9232   26.3829 S   0  0  0  0  0  0  0  0  0  0  0  0
    6.1393  -13.0064   24.9377 C   0  0  0  0  0  0  0  0  0  0  0  0
    7.1059  -14.1609   25.1820 C   0  0  0  0  0  0  0  0  0  0  0  0
    7.2080  -14.9191   23.8802 C   0  0  2  0  0  0  0  0  0  0  0  0
    5.8961  -15.4659   23.6019 N   0  0  0  0  0  0  0  0  0  0  0  0
    8.2585  -15.9564   23.9023 C   0  0  0  0  0  0  0  0  0  0  0  0
    7.9420  -17.1024   24.3155 O   0  0  0  0  0  0  0  0  0  0  0  0
    9.5896  -15.7762   23.4999 N   0  0  0  0  0  0  0  0  0  0  0  0
   10.5985  -16.8062   23.4439 C   0  0  1  0  0  0  0  0  0  0  0  0
   11.6514  -16.5612   22.4103 C   0  0  0  0  0  0  0  0  0  0  0  0
   10.8753  -16.5472   20.7542 S   0  0  0  0  0  0  0  0  0  0  0  0
   11.2585  -17.0079   24.7578 C   0  0  0  0  0  0  0  0  0  0  0  0
   11.8487  -16.0672   25.3652 O   0  0  0  0  0  0  0  0  0  0  0  0
   10.7128  -20.6450   26.5126 O   0  0  0  0  0  0  0  0  0  0  0  0
   11.1127  -19.6229   27.3605 C   0  0  0  0  0  0  0  0  0  0  0  0
   11.8990  -18.5560   26.6350 C   0  0  2  0  0  0  0  0  0  0  0  0
   11.2355  -18.2912   25.3657 N   0  0  0  0  0  0  0  0  0  0  0  0
   13.2798  -19.0626   26.4206 C   0  0  0  0  0  0  0  0  0  0  0  0
   14.1036  -19.3502   27.4988 O   0  0  0  0  0  0  0  0  0  0  0  0
   13.7588  -19.2514   25.2759 O   0  0  0  0  0  0  0  0  0  0  0  0
  2  1  1  0
  3  4  1  0
  3  2  1  0
  4  5  1  0
  5  7  1  0
  5  6  1  1
  7  8  2  0
  9 10  1  0
  9  7  1  0
 10 13  1  0
 10 11  1  6
 12 11  1  0
 13 14  2  0
 13 18  1  0
 16 15  1  0
 17 16  1  6
 18 17  1  0
 19 20  1  0
 19 17  1  0
 21 19  2  0
M  END
$$$$
