MCS.pdb
     RDKit          3D

 21 20  0  0  1  0  0  0  0  0999 V2000
    7.5539  -11.1732   26.9623 C   0  0  0  0  0  0  0  0  0  0  0  0
    6.6943  -12.4944   27.8206 S   0  0  0  0  0  0  0  0  0  0  0  0
    6.1748  -13.8226   26.7068 C   0  0  0  0  0  0  0  0  0  0  0  0
    7.3756  -14.5156   26.0707 C   0  0  0  0  0  0  0  0  0  0  0  0
    6.8228  -15.5981   25.1749 C   0  0  2  0  0  0  0  0  0  0  0  0
    6.3692  -16.6718   26.0345 N   0  0  0  0  0  0  0  0  0  0  0  0
    7.7958  -16.0575   24.1638 C   0  0  0  0  0  0  0  0  0  0  0  0
    8.4395  -17.1116   24.4065 O   0  0  0  0  0  0  0  0  0  0  0  0
    8.0687  -15.4178   22.9463 N   0  0  0  0  0  0  0  0  0  0  0  0
    9.0251  -15.8585   21.9599 C   0  0  1  0  0  0  0  0  0  0  0  0
    8.8866  -15.1716   20.6387 C   0  0  0  0  0  0  0  0  0  0  0  0
    7.1116  -15.0190   20.2245 S   0  0  0  0  0  0  0  0  0  0  0  0
   10.4227  -15.7021   22.4341 C   0  0  0  0  0  0  0  0  0  0  0  0
   11.0922  -14.6499   22.2178 O   0  0  0  0  0  0  0  0  0  0  0  0
   11.6517  -18.4109   25.1138 O   0  0  0  0  0  0  0  0  0  0  0  0
   12.4502  -17.2801   25.0289 C   0  0  0  0  0  0  0  0  0  0  0  0
   12.4065  -16.6541   23.6544 C   0  0  2  0  0  0  0  0  0  0  0  0
   11.0422  -16.7575   23.1548 N   0  0  0  0  0  0  0  0  0  0  0  0
   13.3537  -17.3919   22.7784 C   0  0  0  0  0  0  0  0  0  0  0  0
   14.7146  -17.3883   23.0461 O   0  0  0  0  0  0  0  0  0  0  0  0
   12.9761  -18.0417   21.7731 O   0  0  0  0  0  0  0  0  0  0  0  0
  2  1  1  0
  3  4  1  0
  3  2  1  0
  4  5  1  0
  5  7  1  0
  5  6  1  1
  7  8  2  0
  9 10  1  0
  9  7  1  0
 10 13  1  0
 10 11  1  6
 12 11  1  0
 13 14  2  0
 13 18  1  0
 16 15  1  0
 17 16  1  1
 18 17  1  0
 19 20  1  0
 19 17  1  0
 21 19  2  0
M  END
$$$$
