MCS.pdb
     RDKit          3D

 21 20  0  0  1  0  0  0  0  0999 V2000
    5.3694  -12.1113   26.3349 C   0  0  0  0  0  0  0  0  0  0  0  0
    7.0756  -11.6170   26.0782 S   0  0  0  0  0  0  0  0  0  0  0  0
    7.8403  -12.4659   24.6750 C   0  0  0  0  0  0  0  0  0  0  0  0
    6.8612  -13.4251   24.0055 C   0  0  0  0  0  0  0  0  0  0  0  0
    7.6063  -14.0716   22.8623 C   0  0  2  0  0  0  0  0  0  0  0  0
    6.6959  -14.1257   21.7372 N   0  0  0  0  0  0  0  0  0  0  0  0
    8.1513  -15.3987   23.2113 C   0  0  0  0  0  0  0  0  0  0  0  0
    7.3490  -16.3673   23.2609 O   0  0  0  0  0  0  0  0  0  0  0  0
    9.4958  -15.6781   23.4950 N   0  0  0  0  0  0  0  0  0  0  0  0
   10.0196  -16.9554   23.9145 C   0  0  1  0  0  0  0  0  0  0  0  0
   11.3915  -17.2435   23.3935 C   0  0  0  0  0  0  0  0  0  0  0  0
   11.2699  -17.7911   21.6526 S   0  0  0  0  0  0  0  0  0  0  0  0
   10.0330  -17.0908   25.3924 C   0  0  0  0  0  0  0  0  0  0  0  0
   10.4552  -16.1675   26.1483 O   0  0  0  0  0  0  0  0  0  0  0  0
    7.6630  -19.8903   27.0998 O   0  0  0  0  0  0  0  0  0  0  0  0
    8.2034  -18.8813   27.8831 C   0  0  0  0  0  0  0  0  0  0  0  0
    9.5931  -18.4942   27.4339 C   0  0  2  0  0  0  0  0  0  0  0  0
    9.5603  -18.2881   25.9924 N   0  0  0  0  0  0  0  0  0  0  0  0
   10.5213  -19.5975   27.7949 C   0  0  0  0  0  0  0  0  0  0  0  0
   10.7407  -19.9317   29.1231 O   0  0  0  0  0  0  0  0  0  0  0  0
   11.1400  -20.2677   26.9327 O   0  0  0  0  0  0  0  0  0  0  0  0
  2  1  1  0
  3  4  1  0
  3  2  1  0
  4  5  1  0
  5  7  1  0
  5  6  1  6
  7  8  2  0
  9 10  1  0
  9  7  1  0
 10 13  1  0
 10 11  1  1
 12 11  1  0
 13 14  2  0
 13 18  1  0
 16 15  1  0
 17 16  1  6
 18 17  1  0
 19 20  1  0
 19 17  1  0
 21 19  2  0
M  END
$$$$
