SVR.pdb
     RDKit          3D

 25 24  0  0  1  0  0  0  0  0999 V2000
    7.3885  -17.1411   22.7236 O   0  0  0  0  0  0  0  0  0  0  0  0
    6.3757  -16.2836   22.2453 C   0  0  0  0  0  0  0  0  0  0  0  0
    6.9672  -14.9089   21.9807 C   0  0  2  0  0  0  0  0  0  0  0  0
    7.7919  -15.0168   20.7964 N   0  0  0  0  0  0  0  0  0  0  0  0
    7.7579  -14.5198   23.1776 C   0  0  0  0  0  0  0  0  0  0  0  0
    8.9897  -14.6661   23.1261 O   0  0  0  0  0  0  0  0  0  0  0  0
    7.9137  -12.2233   27.6287 C   0  0  0  0  0  0  0  0  0  0  0  0
    7.1307  -12.6193   26.4066 C   0  0  1  0  0  0  0  0  0  0  0  0
    6.5741  -11.4392   25.6630 C   0  0  0  0  0  0  0  0  0  0  0  0
    7.9113  -13.5675   25.5182 C   0  0  2  0  0  0  0  0  0  0  0  0
    7.1878  -13.9951   24.3651 N   0  0  0  0  0  0  0  0  0  0  0  0
    8.3480  -14.7481   26.3080 C   0  0  0  0  0  0  0  0  0  0  0  0
    7.4952  -15.5470   26.8264 O   0  0  0  0  0  0  0  0  0  0  0  0
   13.9843  -17.9761   22.7802 N   0  0  0  0  0  0  0  0  0  0  0  0
   12.6398  -18.1792   22.3844 C   0  0  0  0  0  0  0  0  0  0  0  0
   12.3954  -19.0544   21.4778 N   0  0  0  0  0  0  0  0  0  0  0  0
   11.5643  -17.4460   22.9606 N   0  0  0  0  0  0  0  0  0  0  0  0
   11.7598  -16.6610   24.1571 C   0  0  0  0  0  0  0  0  0  0  0  0
   11.4402  -17.3883   25.4187 C   0  0  0  0  0  0  0  0  0  0  0  0
   11.4669  -16.6623   26.7014 C   0  0  0  0  0  0  0  0  0  0  0  0
   10.1887  -16.1891   27.2910 C   0  0  2  0  0  0  0  0  0  0  0  0
    9.7292  -15.0174   26.5057 N   0  0  0  0  0  0  0  0  0  0  0  0
   10.3095  -15.7735   28.6857 C   0  0  0  0  0  0  0  0  0  0  0  0
   10.3149  -14.4512   29.0763 O   0  0  0  0  0  0  0  0  0  0  0  0
   10.4221  -16.6247   29.6344 O   0  0  0  0  0  0  0  0  0  0  0  0
  1  2  1  0
  2  3  1  0
  3  4  1  6
  3  5  1  0
  5 11  1  0
  5  6  2  0
  8  7  1  1
  9  8  1  0
 10  8  1  0
 10 12  1  0
 10 11  1  6
 12 13  2  0
 15 17  1  0
 15 14  1  0
 16 15  2  0
 18 17  1  0
 19 18  1  0
 19 20  1  0
 21 20  1  6
 21 23  1  0
 22 21  1  0
 22 12  1  0
 23 25  2  0
 23 24  1  0
M  END
$$$$
