SVR.pdb
     RDKit          3D

 25 24  0  0  1  0  0  0  0  0999 V2000
    9.5634  -17.7659   16.1423 O   0  0  0  0  0  0  0  0  0  0  0  0
    8.3925  -17.1167   15.6980 C   0  0  0  0  0  0  0  0  0  0  0  0
    8.6624  -15.6262   15.5747 C   0  0  2  0  0  0  0  0  0  0  0  0
    9.6959  -15.4581   14.5757 N   0  0  0  0  0  0  0  0  0  0  0  0
    9.0914  -15.1334   16.9097 C   0  0  0  0  0  0  0  0  0  0  0  0
   10.3103  -15.0198   17.1169 O   0  0  0  0  0  0  0  0  0  0  0  0
    7.7911  -13.3463   21.4230 C   0  0  0  0  0  0  0  0  0  0  0  0
    7.3950  -13.7176   20.0199 C   0  0  1  0  0  0  0  0  0  0  0  0
    6.6907  -12.6042   19.2989 C   0  0  0  0  0  0  0  0  0  0  0  0
    8.5597  -14.2900   19.2366 C   0  0  2  0  0  0  0  0  0  0  0  0
    8.1930  -14.7885   17.9510 N   0  0  0  0  0  0  0  0  0  0  0  0
    9.2152  -15.3639   20.0275 C   0  0  0  0  0  0  0  0  0  0  0  0
    8.7162  -16.5395   20.0841 O   0  0  0  0  0  0  0  0  0  0  0  0
   16.5691  -15.2134   19.6739 N   0  0  0  0  0  0  0  0  0  0  0  0
   16.1303  -16.4169   19.0699 C   0  0  0  0  0  0  0  0  0  0  0  0
   16.5072  -16.6708   17.8695 N   0  0  0  0  0  0  0  0  0  0  0  0
   15.2919  -17.3423   19.7532 N   0  0  0  0  0  0  0  0  0  0  0  0
   14.8687  -17.0955   21.1118 C   0  0  0  0  0  0  0  0  0  0  0  0
   13.3990  -17.2295   21.3233 C   0  0  0  0  0  0  0  0  0  0  0  0
   12.5551  -16.0209   21.3390 C   0  0  0  0  0  0  0  0  0  0  0  0
   11.0902  -16.1645   21.5356 C   0  0  2  0  0  0  0  0  0  0  0  0
   10.4167  -15.1077   20.7417 N   0  0  0  0  0  0  0  0  0  0  0  0
   10.6720  -16.0142   22.9266 C   0  0  0  0  0  0  0  0  0  0  0  0
   11.0186  -16.9111   23.9148 O   0  0  0  0  0  0  0  0  0  0  0  0
    9.9484  -15.0309   23.3095 O   0  0  0  0  0  0  0  0  0  0  0  0
  1  2  1  0
  2  3  1  0
  3  4  1  6
  3  5  1  0
  5 11  1  0
  5  6  2  0
  8  7  1  1
  9  8  1  0
 10  8  1  0
 10 12  1  0
 10 11  1  6
 12 13  2  0
 15 17  1  0
 15 14  1  0
 16 15  2  0
 18 17  1  0
 19 18  1  0
 19 20  1  0
 21 20  1  1
 21 23  1  0
 22 21  1  0
 22 12  1  0
 23 25  2  0
 23 24  1  0
M  END
$$$$
