SVR.pdb
     RDKit          3D

 25 24  0  0  1  0  0  0  0  0999 V2000
    7.6965  -16.4981   21.7652 O   0  0  0  0  0  0  0  0  0  0  0  0
    6.5942  -15.6749   21.4539 C   0  0  0  0  0  0  0  0  0  0  0  0
    7.0358  -14.2209   21.4658 C   0  0  2  0  0  0  0  0  0  0  0  0
    7.9598  -14.0436   20.3661 N   0  0  0  0  0  0  0  0  0  0  0  0
    7.6758  -13.9543   22.7805 C   0  0  0  0  0  0  0  0  0  0  0  0
    8.9159  -13.9826   22.8334 O   0  0  0  0  0  0  0  0  0  0  0  0
    7.2236  -12.7874   27.6373 C   0  0  0  0  0  0  0  0  0  0  0  0
    6.6059  -12.8630   26.2676 C   0  0  1  0  0  0  0  0  0  0  0  0
    6.1148  -11.5318   25.7752 C   0  0  0  0  0  0  0  0  0  0  0  0
    7.5126  -13.5656   25.2767 C   0  0  2  0  0  0  0  0  0  0  0  0
    6.9543  -13.6719   23.9680 N   0  0  0  0  0  0  0  0  0  0  0  0
    7.8621  -14.9162   25.7888 C   0  0  0  0  0  0  0  0  0  0  0  0
    6.9754  -15.8307   25.8963 O   0  0  0  0  0  0  0  0  0  0  0  0
   14.7703  -17.2808   25.4010 N   0  0  0  0  0  0  0  0  0  0  0  0
   14.5782  -16.5121   24.2272 C   0  0  0  0  0  0  0  0  0  0  0  0
   15.5047  -15.6978   23.8717 N   0  0  0  0  0  0  0  0  0  0  0  0
   13.3971  -16.6188   23.4399 N   0  0  0  0  0  0  0  0  0  0  0  0
   12.2470  -17.3459   23.9242 C   0  0  0  0  0  0  0  0  0  0  0  0
   11.5476  -16.6858   25.0633 C   0  0  0  0  0  0  0  0  0  0  0  0
   10.3013  -17.2729   25.5879 C   0  0  0  0  0  0  0  0  0  0  0  0
    9.5709  -16.5686   26.6723 C   0  0  2  0  0  0  0  0  0  0  0  0
    9.1956  -15.2235   26.1718 N   0  0  0  0  0  0  0  0  0  0  0  0
   10.3623  -16.3897   27.8864 C   0  0  0  0  0  0  0  0  0  0  0  0
   10.7365  -17.4388   28.6989 O   0  0  0  0  0  0  0  0  0  0  0  0
   10.7544  -15.2337   28.2699 O   0  0  0  0  0  0  0  0  0  0  0  0
  1  2  1  0
  2  3  1  0
  3  4  1  6
  3  5  1  0
  5 11  1  0
  5  6  2  0
  8  7  1  1
  9  8  1  0
 10  8  1  0
 10 12  1  0
 10 11  1  6
 12 13  2  0
 15 17  1  0
 15 14  1  0
 16 15  2  0
 18 17  1  0
 19 18  1  0
 19 20  1  0
 21 20  1  6
 21 23  1  0
 22 21  1  0
 22 12  1  0
 23 25  2  0
 23 24  1  0
M  END
$$$$
