SVR.pdb
     RDKit          3D

 25 24  0  0  1  0  0  0  0  0999 V2000
    7.4881  -16.8127   21.9615 O   0  0  0  0  0  0  0  0  0  0  0  0
    6.4301  -15.8930   21.8044 C   0  0  0  0  0  0  0  0  0  0  0  0
    6.9968  -14.4845   21.7372 C   0  0  2  0  0  0  0  0  0  0  0  0
    7.9263  -14.4480   20.6286 N   0  0  0  0  0  0  0  0  0  0  0  0
    7.6651  -14.2045   23.0349 C   0  0  0  0  0  0  0  0  0  0  0  0
    8.9024  -14.2982   23.0773 O   0  0  0  0  0  0  0  0  0  0  0  0
    7.2637  -12.6478   27.7950 C   0  0  0  0  0  0  0  0  0  0  0  0
    6.6300  -12.8477   26.4453 C   0  0  1  0  0  0  0  0  0  0  0  0
    6.0148  -11.5916   25.8982 C   0  0  0  0  0  0  0  0  0  0  0  0
    7.5765  -13.5194   25.4704 C   0  0  2  0  0  0  0  0  0  0  0  0
    6.9734  -13.8392   24.2175 N   0  0  0  0  0  0  0  0  0  0  0  0
    8.1422  -14.7473   26.0876 C   0  0  0  0  0  0  0  0  0  0  0  0
    7.4371  -15.8059   26.2160 O   0  0  0  0  0  0  0  0  0  0  0  0
   13.3642  -19.8512   23.6943 N   0  0  0  0  0  0  0  0  0  0  0  0
   13.8181  -19.9627   25.0312 C   0  0  0  0  0  0  0  0  0  0  0  0
   13.9402  -21.1351   25.5392 N   0  0  0  0  0  0  0  0  0  0  0  0
   14.1394  -18.8200   25.8170 N   0  0  0  0  0  0  0  0  0  0  0  0
   13.4695  -17.5591   25.5995 C   0  0  0  0  0  0  0  0  0  0  0  0
   12.2121  -17.3970   26.3839 C   0  0  0  0  0  0  0  0  0  0  0  0
   11.4085  -16.1718   26.2215 C   0  0  0  0  0  0  0  0  0  0  0  0
   10.1372  -16.0357   26.9769 C   0  0  2  0  0  0  0  0  0  0  0  0
    9.4854  -14.7730   26.5508 N   0  0  0  0  0  0  0  0  0  0  0  0
   10.3233  -15.9770   28.4241 C   0  0  0  0  0  0  0  0  0  0  0  0
   10.2190  -14.8073   29.1466 O   0  0  0  0  0  0  0  0  0  0  0  0
   10.6005  -17.0209   29.1100 O   0  0  0  0  0  0  0  0  0  0  0  0
  1  2  1  0
  2  3  1  0
  3  4  1  6
  3  5  1  0
  5 11  1  0
  5  6  2  0
  8  7  1  1
  9  8  1  0
 10  8  1  0
 10 12  1  0
 10 11  1  6
 12 13  2  0
 15 17  1  0
 15 14  1  0
 16 15  2  0
 18 17  1  0
 19 18  1  0
 19 20  1  0
 21 20  1  6
 21 23  1  0
 22 21  1  0
 22 12  1  0
 23 25  2  0
 23 24  1  0
M  END
$$$$
