SVR.pdb
     RDKit          3D

 25 24  0  0  1  0  0  0  0  0999 V2000
    8.2732  -19.1861   17.9472 O   0  0  0  0  0  0  0  0  0  0  0  0
    7.1880  -18.3567   17.5950 C   0  0  0  0  0  0  0  0  0  0  0  0
    7.7190  -17.0631   16.9997 C   0  0  2  0  0  0  0  0  0  0  0  0
    8.6708  -17.4228   15.9706 N   0  0  0  0  0  0  0  0  0  0  0  0
    8.3517  -16.2871   18.0982 C   0  0  0  0  0  0  0  0  0  0  0  0
    9.5878  -16.3398   18.2024 O   0  0  0  0  0  0  0  0  0  0  0  0
    7.8222  -13.0646   21.9137 C   0  0  0  0  0  0  0  0  0  0  0  0
    7.2656  -13.6963   20.6669 C   0  0  1  0  0  0  0  0  0  0  0  0
    6.8472  -12.6854   19.6380 C   0  0  0  0  0  0  0  0  0  0  0  0
    8.1902  -14.7615   20.1120 C   0  0  2  0  0  0  0  0  0  0  0  0
    7.6276  -15.4964   19.0260 N   0  0  0  0  0  0  0  0  0  0  0  0
    8.5907  -15.6924   21.1990 C   0  0  0  0  0  0  0  0  0  0  0  0
    7.7536  -16.5164   21.7035 O   0  0  0  0  0  0  0  0  0  0  0  0
   12.8730  -20.7155   21.3966 N   0  0  0  0  0  0  0  0  0  0  0  0
   13.6313  -20.1433   20.3463 C   0  0  0  0  0  0  0  0  0  0  0  0
   13.9243  -20.8769   19.3345 N   0  0  0  0  0  0  0  0  0  0  0  0
   14.0713  -18.7901   20.3834 N   0  0  0  0  0  0  0  0  0  0  0  0
   13.7267  -17.9290   21.4905 C   0  0  0  0  0  0  0  0  0  0  0  0
   12.2645  -17.6721   21.6269 C   0  0  0  0  0  0  0  0  0  0  0  0
   11.7775  -16.8152   22.7232 C   0  0  0  0  0  0  0  0  0  0  0  0
   10.3210  -16.5512   22.8420 C   0  0  2  0  0  0  0  0  0  0  0  0
    9.9187  -15.6880   21.7045 N   0  0  0  0  0  0  0  0  0  0  0  0
    9.9526  -15.8645   24.0770 C   0  0  0  0  0  0  0  0  0  0  0  0
    9.6537  -16.5322   25.2457 O   0  0  0  0  0  0  0  0  0  0  0  0
    9.8826  -14.5885   24.1425 O   0  0  0  0  0  0  0  0  0  0  0  0
  1  2  1  0
  2  3  1  0
  3  4  1  6
  3  5  1  0
  5 11  1  0
  5  6  2  0
  8  7  1  1
  9  8  1  0
 10  8  1  0
 10 12  1  0
 10 11  1  6
 12 13  2  0
 15 17  1  0
 15 14  1  0
 16 15  2  0
 18 17  1  0
 19 18  1  0
 19 20  1  0
 21 20  1  1
 21 23  1  0
 22 21  1  0
 22 12  1  0
 23 25  2  0
 23 24  1  0
M  END
$$$$
