SVR.pdb
     RDKit          3D

 25 24  0  0  1  0  0  0  0  0999 V2000
    5.7312  -18.5274   22.5296 O   0  0  0  0  0  0  0  0  0  0  0  0
    6.6850  -17.7695   23.2404 C   0  0  0  0  0  0  0  0  0  0  0  0
    6.6948  -16.3473   22.7047 C   0  0  2  0  0  0  0  0  0  0  0  0
    7.3007  -16.3875   21.3910 N   0  0  0  0  0  0  0  0  0  0  0  0
    7.4763  -15.5127   23.6542 C   0  0  0  0  0  0  0  0  0  0  0  0
    8.7112  -15.4984   23.5263 O   0  0  0  0  0  0  0  0  0  0  0  0
    7.5161  -12.1541   27.3806 C   0  0  0  0  0  0  0  0  0  0  0  0
    6.7622  -12.8797   26.2996 C   0  0  1  0  0  0  0  0  0  0  0  0
    6.1221  -11.9490   25.3098 C   0  0  0  0  0  0  0  0  0  0  0  0
    7.6075  -13.9540   25.6446 C   0  0  2  0  0  0  0  0  0  0  0  0
    6.8944  -14.7382   24.6894 N   0  0  0  0  0  0  0  0  0  0  0  0
    8.1922  -14.8361   26.6880 C   0  0  0  0  0  0  0  0  0  0  0  0
    7.4498  -15.5872   27.4084 O   0  0  0  0  0  0  0  0  0  0  0  0
   11.7005  -20.2033   25.8556 N   0  0  0  0  0  0  0  0  0  0  0  0
   12.1748  -19.6997   24.6198 C   0  0  0  0  0  0  0  0  0  0  0  0
   12.0922  -20.4505   23.5820 N   0  0  0  0  0  0  0  0  0  0  0  0
   12.7339  -18.3961   24.5006 N   0  0  0  0  0  0  0  0  0  0  0  0
   12.8474  -17.5305   25.6512 C   0  0  0  0  0  0  0  0  0  0  0  0
   11.5376  -17.1209   26.2337 C   0  0  0  0  0  0  0  0  0  0  0  0
   11.5124  -16.2237   27.4032 C   0  0  0  0  0  0  0  0  0  0  0  0
   10.2040  -15.7562   27.9276 C   0  0  2  0  0  0  0  0  0  0  0  0
    9.5955  -14.8653   26.9094 N   0  0  0  0  0  0  0  0  0  0  0  0
   10.3120  -15.0031   29.1741 C   0  0  0  0  0  0  0  0  0  0  0  0
   10.4874  -15.6061   30.4015 O   0  0  0  0  0  0  0  0  0  0  0  0
   10.2453  -13.7256   29.1965 O   0  0  0  0  0  0  0  0  0  0  0  0
  1  2  1  0
  2  3  1  0
  3  4  1  6
  3  5  1  0
  5 11  1  0
  5  6  2  0
  8  7  1  1
  9  8  1  0
 10  8  1  0
 10 12  1  0
 10 11  1  6
 12 13  2  0
 15 17  1  0
 15 14  1  0
 16 15  2  0
 18 17  1  0
 19 18  1  0
 19 20  1  0
 21 20  1  6
 21 23  1  0
 22 21  1  0
 22 12  1  0
 23 25  2  0
 23 24  1  0
M  END
$$$$
