AVM.pdb
     RDKit          3D

 21 20  0  0  1  0  0  0  0  0999 V2000
   15.4860  -12.3004  -17.0232 C   0  0  0  0  0  0  0  0  0  0  0  0
   16.9132  -12.5211  -17.4492 C   0  0  2  0  0  0  0  0  0  0  0  0
   17.2411  -13.9370  -17.4194 N   0  0  0  0  0  0  0  0  0  0  0  0
   17.7946  -11.8295  -16.4741 C   0  0  0  0  0  0  0  0  0  0  0  0
   17.8257  -12.3084  -15.3260 O   0  0  0  0  0  0  0  0  0  0  0  0
   21.5129  -11.0866  -16.8292 C   0  0  0  0  0  0  0  0  0  0  0  0
   20.8527   -9.7778  -16.4497 C   0  0  1  0  0  0  0  0  0  0  0  0
   20.9000   -8.8052  -17.5792 C   0  0  0  0  0  0  0  0  0  0  0  0
   19.5139  -10.0693  -15.8891 C   0  0  2  0  0  0  0  0  0  0  0  0
   18.5754  -10.6839  -16.7880 N   0  0  0  0  0  0  0  0  0  0  0  0
   18.9120   -8.9488  -15.1203 C   0  0  0  0  0  0  0  0  0  0  0  0
   18.1394   -8.0827  -15.6589 O   0  0  0  0  0  0  0  0  0  0  0  0
   15.9066   -6.3730   -8.3793 C   0  0  0  0  0  0  0  0  0  0  0  0
   16.6610   -7.6529   -9.4189 S   0  0  0  0  0  0  0  0  0  0  0  0
   17.4417   -6.8852  -10.8939 C   0  0  0  0  0  0  0  0  0  0  0  0
   17.9813   -7.9935  -11.7199 C   0  0  0  0  0  0  0  0  0  0  0  0
   18.6256   -7.5780  -13.0126 C   0  0  2  0  0  0  0  0  0  0  0  0
   19.1320   -8.7310  -13.7317 N   0  0  0  0  0  0  0  0  0  0  0  0
   19.6422   -6.5269  -12.8524 C   0  0  0  0  0  0  0  0  0  0  0  0
   19.4134   -5.3191  -12.6774 O   0  0  0  0  0  0  0  0  0  0  0  0
   20.9975   -6.8975  -12.8978 O   0  0  0  0  0  0  0  0  0  0  0  0
  2  1  1  1
  3  2  1  0
  4  5  2  0
  4  2  1  0
  7  6  1  6
  7  9  1  0
  8  7  1  0
  9 11  1  0
  9 10  1  6
 10  4  1  0
 11 18  1  0
 12 11  2  0
 14 13  1  0
 15 14  1  0
 17 16  1  1
 16 15  1  0
 18 17  1  0
 19 21  1  0
 19 17  1  0
 20 19  2  0
M  END
$$$$
