AVM.pdb
     RDKit          3D

 21 20  0  0  1  0  0  0  0  0999 V2000
   18.9630  -12.3006  -17.8268 C   0  0  0  0  0  0  0  0  0  0  0  0
   19.6458  -11.0140  -18.2084 C   0  0  2  0  0  0  0  0  0  0  0  0
   20.6541  -11.2547  -19.2276 N   0  0  0  0  0  0  0  0  0  0  0  0
   20.3345  -10.4857  -17.0032 C   0  0  0  0  0  0  0  0  0  0  0  0
   19.6084  -10.2185  -16.0286 O   0  0  0  0  0  0  0  0  0  0  0  0
   23.2918  -12.0147  -15.2485 C   0  0  0  0  0  0  0  0  0  0  0  0
   23.6402  -10.5454  -15.3607 C   0  0  1  0  0  0  0  0  0  0  0  0
   24.8440  -10.3428  -16.2173 C   0  0  0  0  0  0  0  0  0  0  0  0
   22.4224   -9.7998  -15.7515 C   0  0  2  0  0  0  0  0  0  0  0  0
   21.7386  -10.2802  -16.9213 N   0  0  0  0  0  0  0  0  0  0  0  0
   22.5806   -8.3220  -15.7543 C   0  0  0  0  0  0  0  0  0  0  0  0
   22.8817   -7.6650  -16.8102 O   0  0  0  0  0  0  0  0  0  0  0  0
   20.0077   -1.8186  -17.1480 C   0  0  0  0  0  0  0  0  0  0  0  0
   20.0968   -3.6143  -16.9124 S   0  0  0  0  0  0  0  0  0  0  0  0
   21.4259   -4.0258  -15.7130 C   0  0  0  0  0  0  0  0  0  0  0  0
   21.4863   -5.5062  -15.6302 C   0  0  0  0  0  0  0  0  0  0  0  0
   22.4690   -6.0555  -14.6345 C   0  0  2  0  0  0  0  0  0  0  0  0
   22.4164   -7.5043  -14.6017 N   0  0  0  0  0  0  0  0  0  0  0  0
   22.3451   -5.4600  -13.2951 C   0  0  0  0  0  0  0  0  0  0  0  0
   21.8897   -6.0283  -12.2894 O   0  0  0  0  0  0  0  0  0  0  0  0
   22.7728   -4.1332  -13.1131 O   0  0  0  0  0  0  0  0  0  0  0  0
  2  1  1  1
  3  2  1  0
  4  5  2  0
  4  2  1  0
  7  6  1  6
  7  9  1  0
  8  7  1  0
  9 11  1  0
  9 10  1  6
 10  4  1  0
 11 18  1  0
 12 11  2  0
 14 13  1  0
 15 14  1  0
 17 16  1  6
 16 15  1  0
 18 17  1  0
 19 21  1  0
 19 17  1  0
 20 19  2  0
M  END
$$$$
