AVM.pdb
     RDKit          3D

 21 20  0  0  1  0  0  0  0  0999 V2000
   28.4902  -16.1439  -16.1052 C   0  0  0  0  0  0  0  0  0  0  0  0
   27.2037  -16.7695  -16.5752 C   0  0  2  0  0  0  0  0  0  0  0  0
   26.3989  -15.7985  -17.2982 N   0  0  0  0  0  0  0  0  0  0  0  0
   26.4361  -17.1942  -15.3768 C   0  0  0  0  0  0  0  0  0  0  0  0
   26.2825  -16.3349  -14.4900 O   0  0  0  0  0  0  0  0  0  0  0  0
   23.8027  -20.5103  -15.3800 C   0  0  0  0  0  0  0  0  0  0  0  0
   23.7148  -19.3569  -14.4030 C   0  0  1  0  0  0  0  0  0  0  0  0
   22.8474  -19.7031  -13.2403 C   0  0  0  0  0  0  0  0  0  0  0  0
   25.0871  -18.9005  -14.0864 C   0  0  2  0  0  0  0  0  0  0  0  0
   25.8901  -18.4957  -15.2080 N   0  0  0  0  0  0  0  0  0  0  0  0
   25.8278  -19.7838  -13.1483 C   0  0  0  0  0  0  0  0  0  0  0  0
   26.4811  -20.8109  -13.5425 O   0  0  0  0  0  0  0  0  0  0  0  0
   27.4391  -18.1017   -7.3283 C   0  0  0  0  0  0  0  0  0  0  0  0
   27.4351  -19.8652   -6.9067 S   0  0  0  0  0  0  0  0  0  0  0  0
   27.1391  -20.8714   -8.4149 C   0  0  0  0  0  0  0  0  0  0  0  0
   26.6350  -19.9439   -9.4577 C   0  0  0  0  0  0  0  0  0  0  0  0
   26.4070  -20.5588  -10.8101 C   0  0  2  0  0  0  0  0  0  0  0  0
   25.8825  -19.5789  -11.7415 N   0  0  0  0  0  0  0  0  0  0  0  0
   25.5948  -21.7846  -10.7701 C   0  0  0  0  0  0  0  0  0  0  0  0
   24.3543  -21.8322  -10.7928 O   0  0  0  0  0  0  0  0  0  0  0  0
   26.2583  -23.0220  -10.6998 O   0  0  0  0  0  0  0  0  0  0  0  0
  2  1  1  1
  3  2  1  0
  4  5  2  0
  4  2  1  0
  7  6  1  6
  7  9  1  0
  8  7  1  0
  9 11  1  0
  9 10  1  6
 10  4  1  0
 11 18  1  0
 12 11  2  0
 14 13  1  0
 15 14  1  0
 17 16  1  1
 16 15  1  0
 18 17  1  0
 19 21  1  0
 19 17  1  0
 20 19  2  0
M  END
$$$$
