AVM.pdb
     RDKit          3D

 21 20  0  0  1  0  0  0  0  0999 V2000
   18.4288  -13.4490  -17.3112 C   0  0  0  0  0  0  0  0  0  0  0  0
   19.7424  -13.6972  -16.6183 C   0  0  2  0  0  0  0  0  0  0  0  0
   19.6561  -14.8732  -15.7680 N   0  0  0  0  0  0  0  0  0  0  0  0
   20.0300  -12.5277  -15.7491 C   0  0  0  0  0  0  0  0  0  0  0  0
   19.3015  -12.3941  -14.7492 O   0  0  0  0  0  0  0  0  0  0  0  0
   23.3556  -11.2358  -14.1890 C   0  0  0  0  0  0  0  0  0  0  0  0
   22.7307  -10.0888  -14.9551 C   0  0  1  0  0  0  0  0  0  0  0  0
   23.5544   -9.7254  -16.1440 C   0  0  0  0  0  0  0  0  0  0  0  0
   21.3096  -10.4127  -15.2142 C   0  0  2  0  0  0  0  0  0  0  0  0
   21.0661  -11.5886  -16.0046 N   0  0  0  0  0  0  0  0  0  0  0  0
   20.4850   -9.2558  -15.6505 C   0  0  0  0  0  0  0  0  0  0  0  0
   20.2957   -8.9729  -16.8839 O   0  0  0  0  0  0  0  0  0  0  0  0
   14.4431   -7.8793  -15.6116 C   0  0  0  0  0  0  0  0  0  0  0  0
   15.0885   -6.5438  -14.5686 S   0  0  0  0  0  0  0  0  0  0  0  0
   16.8037   -6.1238  -15.0749 C   0  0  0  0  0  0  0  0  0  0  0  0
   17.6397   -7.3160  -14.7893 C   0  0  0  0  0  0  0  0  0  0  0  0
   19.0840   -7.1997  -15.1883 C   0  0  2  0  0  0  0  0  0  0  0  0
   19.8353   -8.3617  -14.7546 N   0  0  0  0  0  0  0  0  0  0  0  0
   19.7114   -5.9377  -14.7669 C   0  0  0  0  0  0  0  0  0  0  0  0
   19.3984   -4.8046  -15.1669 O   0  0  0  0  0  0  0  0  0  0  0  0
   20.7585   -5.9937  -13.8306 O   0  0  0  0  0  0  0  0  0  0  0  0
  2  1  1  1
  3  2  1  0
  4  5  2  0
  4  2  1  0
  7  6  1  6
  7  9  1  0
  8  7  1  0
  9 11  1  0
  9 10  1  6
 10  4  1  0
 11 18  1  0
 12 11  2  0
 14 13  1  0
 15 14  1  0
 17 16  1  1
 16 15  1  0
 18 17  1  0
 19 21  1  0
 19 17  1  0
 20 19  2  0
M  END
$$$$
