AVM.pdb
     RDKit          3D

 21 20  0  0  1  0  0  0  0  0999 V2000
   17.2375  -14.5404  -15.6413 C   0  0  0  0  0  0  0  0  0  0  0  0
   16.1341  -13.6141  -16.0793 C   0  0  2  0  0  0  0  0  0  0  0  0
   15.4616  -14.1422  -17.2549 N   0  0  0  0  0  0  0  0  0  0  0  0
   16.7482  -12.3142  -16.4522 C   0  0  0  0  0  0  0  0  0  0  0  0
   17.5342  -12.3346  -17.4166 O   0  0  0  0  0  0  0  0  0  0  0  0
   15.0342   -9.3715  -17.6913 C   0  0  0  0  0  0  0  0  0  0  0  0
   15.8625   -8.8249  -16.5477 C   0  0  1  0  0  0  0  0  0  0  0  0
   14.9947   -8.3961  -15.4131 C   0  0  0  0  0  0  0  0  0  0  0  0
   16.9281   -9.8015  -16.2274 C   0  0  2  0  0  0  0  0  0  0  0  0
   16.4840  -11.0921  -15.7760 N   0  0  0  0  0  0  0  0  0  0  0  0
   18.0301   -9.2571  -15.3919 C   0  0  0  0  0  0  0  0  0  0  0  0
   18.0725   -9.4143  -14.1228 O   0  0  0  0  0  0  0  0  0  0  0  0
   23.2117  -11.2222  -13.8026 C   0  0  0  0  0  0  0  0  0  0  0  0
   23.8422   -9.6151  -14.3570 S   0  0  0  0  0  0  0  0  0  0  0  0
   22.5189   -8.3464  -14.2404 C   0  0  0  0  0  0  0  0  0  0  0  0
   21.4096   -8.8014  -15.1147 C   0  0  0  0  0  0  0  0  0  0  0  0
   20.1732   -7.9475  -15.0827 C   0  0  2  0  0  0  0  0  0  0  0  0
   19.1293   -8.5183  -15.9117 N   0  0  0  0  0  0  0  0  0  0  0  0
   20.4266   -6.5327  -15.3961 C   0  0  0  0  0  0  0  0  0  0  0  0
   20.1119   -5.9571  -16.4503 O   0  0  0  0  0  0  0  0  0  0  0  0
   21.0806   -5.7435  -14.4339 O   0  0  0  0  0  0  0  0  0  0  0  0
  2  1  1  6
  3  2  1  0
  4  5  2  0
  4  2  1  0
  7  6  1  6
  7  9  1  0
  8  7  1  0
  9 11  1  0
  9 10  1  1
 10  4  1  0
 11 18  1  0
 12 11  2  0
 14 13  1  0
 15 14  1  0
 17 16  1  6
 16 15  1  0
 18 17  1  0
 19 21  1  0
 19 17  1  0
 20 19  2  0
M  END
$$$$
