TWW.pdb
     RDKit          3D

 36 39  0  0  1  0  0  0  0  0999 V2000
   12.7566  -16.2008   17.6019 C   0  0  0  0  0  0  0  0  0  0  0  0
   12.3976  -16.1716   19.0512 C   0  0  1  0  0  0  0  0  0  0  0  0
   13.4233  -16.6674   19.8707 O   0  0  0  0  0  0  0  0  0  0  0  0
   11.9463  -14.8223   19.5436 C   0  0  2  0  0  0  0  0  0  0  0  0
   12.9622  -13.8152   19.3847 N   0  0  0  0  0  0  0  0  0  0  0  0
   11.4913  -14.9444   20.9440 C   0  0  0  0  0  0  0  0  0  0  0  0
   12.2680  -14.6067   21.8686 O   0  0  0  0  0  0  0  0  0  0  0  0
   10.2168  -15.4272   21.2550 N   0  0  0  0  0  0  0  0  0  0  0  0
    9.6655  -15.5040   22.5907 C   0  0  1  0  0  0  0  0  0  0  0  0
    8.1523  -15.7090   22.4882 C   0  0  0  0  0  0  0  0  0  0  0  0
    7.4756  -15.4171   23.7610 C   0  0  0  0  0  0  0  0  0  0  0  0
    6.7515  -16.3183   24.5157 C   0  0  0  0  0  0  0  0  0  0  0  0
    6.2731  -15.7092   25.6168 N   0  0  0  0  0  0  0  0  0  0  0  0
    6.6739  -14.4226   25.5936 C   0  0  0  0  0  0  0  0  0  0  0  0
    6.4989  -13.3389   26.4264 C   0  0  0  0  0  0  0  0  0  0  0  0
    7.0403  -12.1020   26.1434 C   0  0  0  0  0  0  0  0  0  0  0  0
    7.7801  -11.9421   24.9919 C   0  0  0  0  0  0  0  0  0  0  0  0
    7.9817  -12.9967   24.1290 C   0  0  0  0  0  0  0  0  0  0  0  0
    7.4264  -14.2182   24.4427 C   0  0  0  0  0  0  0  0  0  0  0  0
   10.2365  -16.6996   23.2562 C   0  0  0  0  0  0  0  0  0  0  0  0
   10.5902  -17.7304   22.6070 O   0  0  0  0  0  0  0  0  0  0  0  0
   10.4125  -16.7402   24.6599 N   0  0  0  0  0  0  0  0  0  0  0  0
   11.2930  -17.6890   25.3089 C   0  0  1  0  0  0  0  0  0  0  0  0
   11.0283  -17.5724   26.7972 C   0  0  0  0  0  0  0  0  0  0  0  0
    9.9519  -16.6285   27.1286 C   0  0  0  0  0  0  0  0  0  0  0  0
    8.6046  -16.9136   27.1698 C   0  0  0  0  0  0  0  0  0  0  0  0
    7.9708  -15.7781   27.5117 N   0  0  0  0  0  0  0  0  0  0  0  0
    8.8634  -14.7855   27.6886 C   0  0  0  0  0  0  0  0  0  0  0  0
    8.7073  -13.4609   28.0385 C   0  0  0  0  0  0  0  0  0  0  0  0
    9.8444  -12.6860   28.1397 C   0  0  0  0  0  0  0  0  0  0  0  0
   11.1114  -13.1740   27.9088 C   0  0  0  0  0  0  0  0  0  0  0  0
   11.2645  -14.4931   27.5605 C   0  0  0  0  0  0  0  0  0  0  0  0
   10.1356  -15.2775   27.4562 C   0  0  0  0  0  0  0  0  0  0  0  0
   10.9958  -19.0325   24.7864 C   0  0  0  0  0  0  0  0  0  0  0  0
   11.7430  -20.1607   25.0878 O   0  0  0  0  0  0  0  0  0  0  0  0
   10.0087  -19.1738   24.0215 O   0  0  0  0  0  0  0  0  0  0  0  0
  2  1  1  6
  2  3  1  0
  4  2  1  0
  4  5  1  1
  6  7  2  0
  6  4  1  0
  8  6  1  0
  9  8  1  0
  9 10  1  6
 11 10  1  0
 11 19  1  0
 12 13  1  0
 12 11  2  0
 13 14  1  0
 14 15  2  0
 14 19  1  0
 15 16  1  0
 16 17  2  0
 18 17  1  0
 19 18  2  0
 20 21  2  0
 20  9  1  0
 22 20  1  0
 23 22  1  0
 23 24  1  1
 25 24  1  0
 25 26  2  0
 27 26  1  0
 28 27  1  0
 29 28  2  0
 30 29  1  0
 31 30  2  0
 31 32  1  0
 32 33  2  0
 33 28  1  0
 33 25  1  0
 34 23  1  0
 35 34  1  0
 36 34  2  0
M  END
$$$$
