TWW.pdb
     RDKit          3D

 36 39  0  0  1  0  0  0  0  0999 V2000
   12.2224  -19.1493   20.0227 C   0  0  0  0  0  0  0  0  0  0  0  0
   12.0340  -17.9366   19.1719 C   0  0  1  0  0  0  0  0  0  0  0  0
   12.2323  -18.1991   17.8077 O   0  0  0  0  0  0  0  0  0  0  0  0
   10.7153  -17.2407   19.3803 C   0  0  2  0  0  0  0  0  0  0  0  0
   10.4806  -16.2112   18.4021 N   0  0  0  0  0  0  0  0  0  0  0  0
   10.6522  -16.7253   20.7636 C   0  0  0  0  0  0  0  0  0  0  0  0
   11.1883  -15.6232   21.0281 O   0  0  0  0  0  0  0  0  0  0  0  0
   10.0086  -17.4409   21.7775 N   0  0  0  0  0  0  0  0  0  0  0  0
    9.8721  -16.9924   23.1466 C   0  0  1  0  0  0  0  0  0  0  0  0
    8.4967  -17.4144   23.6684 C   0  0  0  0  0  0  0  0  0  0  0  0
    7.5228  -16.3152   23.5879 C   0  0  0  0  0  0  0  0  0  0  0  0
    6.3498  -16.3274   22.8600 C   0  0  0  0  0  0  0  0  0  0  0  0
    5.7049  -15.1561   23.0161 N   0  0  0  0  0  0  0  0  0  0  0  0
    6.4389  -14.3777   23.8358 C   0  0  0  0  0  0  0  0  0  0  0  0
    6.2965  -13.1066   24.3482 C   0  0  0  0  0  0  0  0  0  0  0  0
    7.2347  -12.5463   25.1901 C   0  0  0  0  0  0  0  0  0  0  0  0
    8.3508  -13.2787   25.5315 C   0  0  0  0  0  0  0  0  0  0  0  0
    8.5362  -14.5536   25.0438 C   0  0  0  0  0  0  0  0  0  0  0  0
    7.5791  -15.0822   24.2051 C   0  0  0  0  0  0  0  0  0  0  0  0
   10.8952  -17.6889   23.9631 C   0  0  0  0  0  0  0  0  0  0  0  0
   11.3602  -18.8239   23.6398 O   0  0  0  0  0  0  0  0  0  0  0  0
   11.4009  -17.1088   25.1508 N   0  0  0  0  0  0  0  0  0  0  0  0
   12.3334  -17.7962   26.0195 C   0  0  1  0  0  0  0  0  0  0  0  0
   12.6794  -16.8262   27.1320 C   0  0  0  0  0  0  0  0  0  0  0  0
   11.5157  -16.4037   27.9239 C   0  0  0  0  0  0  0  0  0  0  0  0
   10.7958  -17.1917   28.7953 C   0  0  0  0  0  0  0  0  0  0  0  0
    9.8192  -16.4230   29.3081 N   0  0  0  0  0  0  0  0  0  0  0  0
    9.8922  -15.1796   28.7960 C   0  0  0  0  0  0  0  0  0  0  0  0
    9.1265  -14.0525   29.0073 C   0  0  0  0  0  0  0  0  0  0  0  0
    9.4656  -12.9079   28.3154 C   0  0  0  0  0  0  0  0  0  0  0  0
   10.5225  -12.8456   27.4347 C   0  0  0  0  0  0  0  0  0  0  0  0
   11.2835  -13.9690   27.2258 C   0  0  0  0  0  0  0  0  0  0  0  0
   10.9543  -15.1188   27.9115 C   0  0  0  0  0  0  0  0  0  0  0  0
   11.6879  -19.0210   26.5189 C   0  0  0  0  0  0  0  0  0  0  0  0
   12.3744  -20.0666   27.1168 O   0  0  0  0  0  0  0  0  0  0  0  0
   10.4419  -19.1335   26.4004 O   0  0  0  0  0  0  0  0  0  0  0  0
  2  1  1  1
  2  3  1  0
  4  2  1  0
  4  5  1  6
  6  7  2  0
  6  4  1  0
  8  6  1  0
  9  8  1  0
  9 10  1  1
 11 10  1  0
 11 19  1  0
 12 13  1  0
 12 11  2  0
 13 14  1  0
 14 15  2  0
 14 19  1  0
 15 16  1  0
 16 17  2  0
 18 17  1  0
 19 18  2  0
 20 21  2  0
 20  9  1  0
 22 20  1  0
 23 22  1  0
 23 24  1  1
 25 24  1  0
 25 26  2  0
 27 26  1  0
 28 27  1  0
 29 28  2  0
 30 29  1  0
 31 30  2  0
 31 32  1  0
 32 33  2  0
 33 28  1  0
 33 25  1  0
 34 23  1  0
 35 34  1  0
 36 34  2  0
M  END
$$$$
