TWW.pdb
     RDKit          3D

 36 39  0  0  1  0  0  0  0  0999 V2000
   10.1444  -18.4427   19.0911 C   0  0  0  0  0  0  0  0  0  0  0  0
    9.4289  -17.3511   18.3653 C   0  0  1  0  0  0  0  0  0  0  0  0
    9.1263  -17.6942   17.0387 O   0  0  0  0  0  0  0  0  0  0  0  0
    8.1931  -16.8556   19.0681 C   0  0  2  0  0  0  0  0  0  0  0  0
    7.4345  -15.9393   18.2578 N   0  0  0  0  0  0  0  0  0  0  0  0
    8.5772  -16.2691   20.3687 C   0  0  0  0  0  0  0  0  0  0  0  0
    9.1100  -15.1343   20.3917 O   0  0  0  0  0  0  0  0  0  0  0  0
    8.3581  -16.9531   21.5680 N   0  0  0  0  0  0  0  0  0  0  0  0
    8.7545  -16.4764   22.8755 C   0  0  1  0  0  0  0  0  0  0  0  0
    7.8911  -17.1665   23.9342 C   0  0  0  0  0  0  0  0  0  0  0  0
    7.2365  -16.1937   24.8220 C   0  0  0  0  0  0  0  0  0  0  0  0
    6.2827  -16.4858   25.7764 C   0  0  0  0  0  0  0  0  0  0  0  0
    5.9041  -15.3558   26.4024 N   0  0  0  0  0  0  0  0  0  0  0  0
    6.5965  -14.3285   25.8715 C   0  0  0  0  0  0  0  0  0  0  0  0
    6.6378  -12.9698   26.0967 C   0  0  0  0  0  0  0  0  0  0  0  0
    7.4685  -12.1330   25.3807 C   0  0  0  0  0  0  0  0  0  0  0  0
    8.2841  -12.6702   24.4086 C   0  0  0  0  0  0  0  0  0  0  0  0
    8.2771  -14.0227   24.1479 C   0  0  0  0  0  0  0  0  0  0  0  0
    7.4349  -14.8293   24.8822 C   0  0  0  0  0  0  0  0  0  0  0  0
   10.1609  -16.8846   23.1073 C   0  0  0  0  0  0  0  0  0  0  0  0
   10.4957  -18.0982   23.2630 O   0  0  0  0  0  0  0  0  0  0  0  0
   11.2000  -15.9254   23.1649 N   0  0  0  0  0  0  0  0  0  0  0  0
   12.4711  -16.1894   23.8060 C   0  0  1  0  0  0  0  0  0  0  0  0
   12.5224  -15.3073   25.0380 C   0  0  0  0  0  0  0  0  0  0  0  0
   11.7414  -15.8319   26.1669 C   0  0  0  0  0  0  0  0  0  0  0  0
   11.5584  -17.1608   26.4812 C   0  0  0  0  0  0  0  0  0  0  0  0
   10.7839  -17.2040   27.5795 N   0  0  0  0  0  0  0  0  0  0  0  0
   10.4694  -15.9551   27.9730 C   0  0  0  0  0  0  0  0  0  0  0  0
    9.7122  -15.4868   29.0260 C   0  0  0  0  0  0  0  0  0  0  0  0
    9.5771  -14.1203   29.1609 C   0  0  0  0  0  0  0  0  0  0  0  0
   10.1591  -13.2173   28.2993 C   0  0  0  0  0  0  0  0  0  0  0  0
   10.9126  -13.6857   27.2515 C   0  0  0  0  0  0  0  0  0  0  0  0
   11.0548  -15.0493   27.1064 C   0  0  0  0  0  0  0  0  0  0  0  0
   12.5379  -17.6224   24.1347 C   0  0  0  0  0  0  0  0  0  0  0  0
   11.4977  -18.5132   23.9189 O   0  0  0  0  0  0  0  0  0  0  0  0
   13.5961  -18.0731   24.6410 O   0  0  0  0  0  0  0  0  0  0  0  0
  2  1  1  1
  2  3  1  0
  4  2  1  0
  4  5  1  6
  6  7  2  0
  6  4  1  0
  8  6  1  0
  9  8  1  0
  9 10  1  1
 11 10  1  0
 11 19  1  0
 12 13  1  0
 12 11  2  0
 13 14  1  0
 14 15  2  0
 14 19  1  0
 15 16  1  0
 16 17  2  0
 18 17  1  0
 19 18  2  0
 20 21  2  0
 20  9  1  0
 22 20  1  0
 23 22  1  0
 23 24  1  1
 25 24  1  0
 25 26  2  0
 27 26  1  0
 28 27  1  0
 29 28  2  0
 30 29  1  0
 31 30  2  0
 31 32  1  0
 32 33  2  0
 33 28  1  0
 33 25  1  0
 34 23  1  0
 35 34  1  0
 36 34  2  0
M  END
$$$$
