TWW.pdb
     RDKit          3D

 36 39  0  0  1  0  0  0  0  0999 V2000
    9.1044  -21.4134   22.2791 C   0  0  0  0  0  0  0  0  0  0  0  0
    9.5666  -20.0023   22.4377 C   0  0  1  0  0  0  0  0  0  0  0  0
   10.8958  -19.9168   22.8794 O   0  0  0  0  0  0  0  0  0  0  0  0
    9.3719  -19.1522   21.2104 C   0  0  2  0  0  0  0  0  0  0  0  0
   10.0409  -19.6959   20.0578 N   0  0  0  0  0  0  0  0  0  0  0  0
    9.7982  -17.7687   21.5061 C   0  0  0  0  0  0  0  0  0  0  0  0
   10.8218  -17.3132   20.9433 O   0  0  0  0  0  0  0  0  0  0  0  0
    9.0841  -16.9627   22.3976 N   0  0  0  0  0  0  0  0  0  0  0  0
    9.4065  -15.5863   22.7070 C   0  0  1  0  0  0  0  0  0  0  0  0
    8.1193  -14.7591   22.6726 C   0  0  0  0  0  0  0  0  0  0  0  0
    7.5595  -14.6788   21.3149 C   0  0  0  0  0  0  0  0  0  0  0  0
    6.5935  -15.5134   20.7892 C   0  0  0  0  0  0  0  0  0  0  0  0
    6.3197  -15.1512   19.5218 N   0  0  0  0  0  0  0  0  0  0  0  0
    7.0924  -14.0916   19.2108 C   0  0  0  0  0  0  0  0  0  0  0  0
    7.2530  -13.3063   18.0901 C   0  0  0  0  0  0  0  0  0  0  0  0
    8.1459  -12.2554   18.0533 C   0  0  0  0  0  0  0  0  0  0  0  0
    8.9025  -11.9797   19.1714 C   0  0  0  0  0  0  0  0  0  0  0  0
    8.7765  -12.7374   20.3148 C   0  0  0  0  0  0  0  0  0  0  0  0
    7.8750  -13.7797   20.3167 C   0  0  0  0  0  0  0  0  0  0  0  0
    9.9347  -15.5375   24.0916 C   0  0  0  0  0  0  0  0  0  0  0  0
   10.4950  -14.5027   24.5652 O   0  0  0  0  0  0  0  0  0  0  0  0
    9.8341  -16.6569   24.9517 N   0  0  0  0  0  0  0  0  0  0  0  0
   10.3057  -16.6341   26.3206 C   0  0  1  0  0  0  0  0  0  0  0  0
    9.0846  -16.8236   27.1990 C   0  0  0  0  0  0  0  0  0  0  0  0
    7.9554  -15.9601   26.8266 C   0  0  0  0  0  0  0  0  0  0  0  0
    6.7385  -16.3797   26.3353 C   0  0  0  0  0  0  0  0  0  0  0  0
    5.9963  -15.2783   26.1252 N   0  0  0  0  0  0  0  0  0  0  0  0
    6.6951  -14.1782   26.4641 C   0  0  0  0  0  0  0  0  0  0  0  0
    6.3725  -12.8380   26.4299 C   0  0  0  0  0  0  0  0  0  0  0  0
    7.3279  -11.9373   26.8536 C   0  0  0  0  0  0  0  0  0  0  0  0
    8.5734  -12.3162   27.3030 C   0  0  0  0  0  0  0  0  0  0  0  0
    8.8925  -13.6511   27.3362 C   0  0  0  0  0  0  0  0  0  0  0  0
    7.9459  -14.5607   26.9153 C   0  0  0  0  0  0  0  0  0  0  0  0
   11.2952  -17.7104   26.4898 C   0  0  0  0  0  0  0  0  0  0  0  0
   12.0298  -17.9085   27.6488 O   0  0  0  0  0  0  0  0  0  0  0  0
   11.4919  -18.5005   25.5325 O   0  0  0  0  0  0  0  0  0  0  0  0
  2  1  1  6
  2  3  1  0
  4  2  1  0
  4  5  1  6
  6  7  2  0
  6  4  1  0
  8  6  1  0
  9  8  1  0
  9 10  1  1
 11 10  1  0
 11 19  1  0
 12 13  1  0
 12 11  2  0
 13 14  1  0
 14 15  2  0
 14 19  1  0
 15 16  1  0
 16 17  2  0
 18 17  1  0
 19 18  2  0
 20 21  2  0
 20  9  1  0
 22 20  1  0
 23 22  1  0
 23 24  1  1
 25 24  1  0
 25 26  2  0
 27 26  1  0
 28 27  1  0
 29 28  2  0
 30 29  1  0
 31 30  2  0
 31 32  1  0
 32 33  2  0
 33 28  1  0
 33 25  1  0
 34 23  1  0
 35 34  1  0
 36 34  2  0
M  END
$$$$
