TWW.pdb
     RDKit          3D

 36 39  0  0  1  0  0  0  0  0999 V2000
   11.9075  -19.3914   22.6197 C   0  0  0  0  0  0  0  0  0  0  0  0
   12.0116  -19.1288   21.1532 C   0  0  1  0  0  0  0  0  0  0  0  0
   12.4974  -20.2357   20.4405 O   0  0  0  0  0  0  0  0  0  0  0  0
   10.7365  -18.6282   20.5285 C   0  0  2  0  0  0  0  0  0  0  0  0
   10.8373  -18.5157   19.0970 N   0  0  0  0  0  0  0  0  0  0  0  0
   10.3526  -17.3518   21.1661 C   0  0  0  0  0  0  0  0  0  0  0  0
   11.0756  -16.3422   20.9920 O   0  0  0  0  0  0  0  0  0  0  0  0
    9.2036  -17.2501   21.9557 N   0  0  0  0  0  0  0  0  0  0  0  0
    8.7814  -16.0527   22.6500 C   0  0  1  0  0  0  0  0  0  0  0  0
    7.3579  -15.7036   22.2096 C   0  0  0  0  0  0  0  0  0  0  0  0
    7.3319  -15.1296   20.8557 C   0  0  0  0  0  0  0  0  0  0  0  0
    6.8848  -15.7682   19.7164 C   0  0  0  0  0  0  0  0  0  0  0  0
    7.0056  -14.9466   18.6568 N   0  0  0  0  0  0  0  0  0  0  0  0
    7.5252  -13.7796   19.0864 C   0  0  0  0  0  0  0  0  0  0  0  0
    7.8672  -12.5905   18.4800 C   0  0  0  0  0  0  0  0  0  0  0  0
    8.3964  -11.5319   19.1888 C   0  0  0  0  0  0  0  0  0  0  0  0
    8.5902  -11.6648   20.5465 C   0  0  0  0  0  0  0  0  0  0  0  0
    8.2634  -12.8347   21.1962 C   0  0  0  0  0  0  0  0  0  0  0  0
    7.7370  -13.8719   20.4573 C   0  0  0  0  0  0  0  0  0  0  0  0
    8.7416  -16.3524   24.1016 C   0  0  0  0  0  0  0  0  0  0  0  0
    7.6848  -16.2196   24.7905 O   0  0  0  0  0  0  0  0  0  0  0  0
    9.8949  -16.8042   24.7862 N   0  0  0  0  0  0  0  0  0  0  0  0
   10.3837  -16.1718   25.9935 C   0  0  1  0  0  0  0  0  0  0  0  0
    9.2612  -16.2583   27.0088 C   0  0  0  0  0  0  0  0  0  0  0  0
    8.0774  -15.4686   26.6419 C   0  0  0  0  0  0  0  0  0  0  0  0
    6.8402  -15.9692   26.2996 C   0  0  0  0  0  0  0  0  0  0  0  0
    6.0469  -14.9160   26.0366 N   0  0  0  0  0  0  0  0  0  0  0  0
    6.7327  -13.7685   26.1989 C   0  0  0  0  0  0  0  0  0  0  0  0
    6.3632  -12.4483   26.0505 C   0  0  0  0  0  0  0  0  0  0  0  0
    7.3182  -11.4834   26.2967 C   0  0  0  0  0  0  0  0  0  0  0  0
    8.6075  -11.7802   26.6793 C   0  0  0  0  0  0  0  0  0  0  0  0
    8.9732  -13.0953   26.8265 C   0  0  0  0  0  0  0  0  0  0  0  0
    8.0275  -14.0685   26.5832 C   0  0  0  0  0  0  0  0  0  0  0  0
   11.5969  -16.8806   26.4317 C   0  0  0  0  0  0  0  0  0  0  0  0
   12.2009  -17.8972   25.7080 O   0  0  0  0  0  0  0  0  0  0  0  0
   12.1224  -16.5511   27.5247 O   0  0  0  0  0  0  0  0  0  0  0  0
  2  1  1  1
  2  3  1  0
  4  2  1  0
  4  5  1  6
  6  7  2  0
  6  4  1  0
  8  6  1  0
  9  8  1  0
  9 10  1  6
 11 10  1  0
 11 19  1  0
 12 13  1  0
 12 11  2  0
 13 14  1  0
 14 15  2  0
 14 19  1  0
 15 16  1  0
 16 17  2  0
 18 17  1  0
 19 18  2  0
 20 21  2  0
 20  9  1  0
 22 20  1  0
 23 22  1  0
 23 24  1  1
 25 24  1  0
 25 26  2  0
 27 26  1  0
 28 27  1  0
 29 28  2  0
 30 29  1  0
 31 30  2  0
 31 32  1  0
 32 33  2  0
 33 28  1  0
 33 25  1  0
 34 23  1  0
 35 34  1  0
 36 34  2  0
M  END
$$$$
