FMI.pdb
     RDKit          3D

 28 28  0  0  1  0  0  0  0  0999 V2000
    5.7753  -18.4909   25.5231 N   0  0  0  0  0  0  0  0  0  0  0  0
    5.9904  -17.0412   25.3734 C   0  0  1  0  0  0  0  0  0  0  0  0
    6.3178  -16.5463   26.7668 C   0  0  0  0  0  0  0  0  0  0  0  0
    6.4398  -15.0860   26.8590 C   0  0  0  0  0  0  0  0  0  0  0  0
    5.4113  -14.1795   26.6815 C   0  0  0  0  0  0  0  0  0  0  0  0
    5.5558  -12.8216   26.7721 C   0  0  0  0  0  0  0  0  0  0  0  0
    6.8253  -12.3188   27.0629 C   0  0  0  0  0  0  0  0  0  0  0  0
    7.8972  -13.1840   27.2514 C   0  0  0  0  0  0  0  0  0  0  0  0
    7.6969  -14.5416   27.1493 C   0  0  0  0  0  0  0  0  0  0  0  0
    7.1900  -16.8147   24.5180 C   0  0  0  0  0  0  0  0  0  0  0  0
    8.1734  -17.5614   24.6182 O   0  0  0  0  0  0  0  0  0  0  0  0
    9.2066  -12.7267   18.2147 C   0  0  0  0  0  0  0  0  0  0  0  0
    7.9719  -13.3942   19.3830 S   0  0  0  0  0  0  0  0  0  0  0  0
    8.8208  -13.6296   20.9817 C   0  0  0  0  0  0  0  0  0  0  0  0
    7.8341  -14.1727   21.9613 C   0  0  0  0  0  0  0  0  0  0  0  0
    8.3251  -15.3048   22.8121 C   0  0  2  0  0  0  0  0  0  0  0  0
    7.1825  -15.7540   23.6086 N   0  0  0  0  0  0  0  0  0  0  0  0
    9.4659  -14.9660   23.6759 C   0  0  0  0  0  0  0  0  0  0  0  0
    9.7114  -13.7656   23.9644 O   0  0  0  0  0  0  0  0  0  0  0  0
   10.2375  -15.2770   28.6561 C   0  0  0  0  0  0  0  0  0  0  0  0
   10.3912  -15.9137   27.2948 C   0  0  0  0  0  0  0  0  0  0  0  0
   11.1465  -14.9708   26.3703 C   0  0  2  0  0  0  0  0  0  0  0  0
   10.3220  -13.6918   26.2219 C   0  0  0  0  0  0  0  0  0  0  0  0
   11.4591  -15.5823   25.0566 C   0  0  2  0  0  0  0  0  0  0  0  0
   10.3465  -15.9320   24.2274 N   0  0  0  0  0  0  0  0  0  0  0  0
   12.4279  -16.7166   25.2279 C   0  0  0  0  0  0  0  0  0  0  0  0
   13.6861  -16.4355   25.7221 O   0  0  0  0  0  0  0  0  0  0  0  0
   12.1144  -17.8947   24.9332 O   0  0  0  0  0  0  0  0  0  0  0  0
  2  1  1  1
  3  4  1  0
  3  2  1  0
  4  5  2  0
  5  6  1  0
  7  6  2  0
  8  7  1  0
  9  8  2  0
  9  4  1  0
 10  2  1  0
 10 17  1  0
 11 10  2  0
 13 12  1  0
 14 13  1  0
 16 15  1  1
 15 14  1  0
 16 17  1  0
 18 16  1  0
 19 18  2  0
 20 21  1  0
 21 22  1  0
 22 24  1  0
 22 23  1  6
 24 26  1  0
 24 25  1  1
 25 18  1  0
 26 27  1  0
 28 26  2  0
M  END
$$$$
