FMI.pdb
     RDKit          3D

 28 28  0  0  1  0  0  0  0  0999 V2000
    5.9479  -19.4014   23.9941 N   0  0  0  0  0  0  0  0  0  0  0  0
    6.0925  -17.9594   24.2589 C   0  0  1  0  0  0  0  0  0  0  0  0
    6.0954  -17.8353   25.7684 C   0  0  0  0  0  0  0  0  0  0  0  0
    6.2550  -16.4557   26.2450 C   0  0  0  0  0  0  0  0  0  0  0  0
    7.4026  -15.9248   26.8038 C   0  0  0  0  0  0  0  0  0  0  0  0
    7.5212  -14.6334   27.2412 C   0  0  0  0  0  0  0  0  0  0  0  0
    6.4105  -13.7973   27.1146 C   0  0  0  0  0  0  0  0  0  0  0  0
    5.2295  -14.2775   26.5598 C   0  0  0  0  0  0  0  0  0  0  0  0
    5.1638  -15.5849   26.1356 C   0  0  0  0  0  0  0  0  0  0  0  0
    7.4236  -17.5065   23.7640 C   0  0  0  0  0  0  0  0  0  0  0  0
    8.4312  -18.1959   23.9744 O   0  0  0  0  0  0  0  0  0  0  0  0
    6.8063  -12.6868   19.9902 C   0  0  0  0  0  0  0  0  0  0  0  0
    8.6200  -12.4746   19.9680 S   0  0  0  0  0  0  0  0  0  0  0  0
    9.3397  -13.9369   20.7899 C   0  0  0  0  0  0  0  0  0  0  0  0
    8.2800  -14.5745   21.6255 C   0  0  0  0  0  0  0  0  0  0  0  0
    8.7084  -15.7850   22.3989 C   0  0  2  0  0  0  0  0  0  0  0  0
    7.5110  -16.3008   23.0633 N   0  0  0  0  0  0  0  0  0  0  0  0
    9.7823  -15.5360   23.3721 C   0  0  0  0  0  0  0  0  0  0  0  0
   10.9678  -15.3695   22.9831 O   0  0  0  0  0  0  0  0  0  0  0  0
    9.8772  -11.5677   26.8631 C   0  0  0  0  0  0  0  0  0  0  0  0
   10.1122  -12.6809   25.8691 C   0  0  0  0  0  0  0  0  0  0  0  0
   10.3407  -13.9897   26.6100 C   0  0  2  0  0  0  0  0  0  0  0  0
   11.4809  -13.7773   27.6062 C   0  0  0  0  0  0  0  0  0  0  0  0
   10.6084  -15.1271   25.6979 C   0  0  2  0  0  0  0  0  0  0  0  0
    9.5713  -15.4699   24.7734 N   0  0  0  0  0  0  0  0  0  0  0  0
   11.1009  -16.3132   26.4757 C   0  0  0  0  0  0  0  0  0  0  0  0
   10.4212  -17.5084   26.3497 O   0  0  0  0  0  0  0  0  0  0  0  0
   12.1037  -16.2336   27.2249 O   0  0  0  0  0  0  0  0  0  0  0  0
  2  1  1  1
  3  4  1  0
  3  2  1  0
  4  5  2  0
  5  6  1  0
  7  6  2  0
  8  7  1  0
  9  8  2  0
  9  4  1  0
 10  2  1  0
 10 17  1  0
 11 10  2  0
 13 12  1  0
 14 13  1  0
 16 15  1  1
 15 14  1  0
 16 17  1  0
 18 16  1  0
 19 18  2  0
 20 21  1  0
 21 22  1  0
 22 24  1  0
 22 23  1  1
 24 26  1  0
 24 25  1  1
 25 18  1  0
 26 27  1  0
 28 26  2  0
M  END
$$$$
