FMI.pdb
     RDKit          3D

 28 28  0  0  1  0  0  0  0  0999 V2000
    5.9746  -19.5960   23.7579 N   0  0  0  0  0  0  0  0  0  0  0  0
    6.1235  -18.1788   24.1315 C   0  0  1  0  0  0  0  0  0  0  0  0
    6.1496  -18.1721   25.6458 C   0  0  0  0  0  0  0  0  0  0  0  0
    6.2326  -16.8262   26.2268 C   0  0  0  0  0  0  0  0  0  0  0  0
    5.4803  -15.7336   25.8377 C   0  0  0  0  0  0  0  0  0  0  0  0
    5.5811  -14.4889   26.3977 C   0  0  0  0  0  0  0  0  0  0  0  0
    6.5042  -14.3108   27.4298 C   0  0  0  0  0  0  0  0  0  0  0  0
    7.2879  -15.3747   27.8623 C   0  0  0  0  0  0  0  0  0  0  0  0
    7.1464  -16.6062   27.2648 C   0  0  0  0  0  0  0  0  0  0  0  0
    7.4468  -17.6874   23.6528 C   0  0  0  0  0  0  0  0  0  0  0  0
    8.4388  -18.4278   23.7031 O   0  0  0  0  0  0  0  0  0  0  0  0
    6.8598  -12.6867   20.1456 C   0  0  0  0  0  0  0  0  0  0  0  0
    8.6296  -12.3073   20.3883 S   0  0  0  0  0  0  0  0  0  0  0  0
    9.3839  -13.7636   21.1897 C   0  0  0  0  0  0  0  0  0  0  0  0
    8.3037  -14.5361   21.8711 C   0  0  0  0  0  0  0  0  0  0  0  0
    8.7468  -15.7842   22.5730 C   0  0  2  0  0  0  0  0  0  0  0  0
    7.5448  -16.3876   23.1496 N   0  0  0  0  0  0  0  0  0  0  0  0
    9.7728  -15.5702   23.6045 C   0  0  0  0  0  0  0  0  0  0  0  0
   10.8688  -15.0263   23.3089 O   0  0  0  0  0  0  0  0  0  0  0  0
    8.8537  -12.6117   27.6926 C   0  0  0  0  0  0  0  0  0  0  0  0
    9.5154  -13.3667   26.5638 C   0  0  0  0  0  0  0  0  0  0  0  0
   10.0199  -14.7090   27.0714 C   0  0  2  0  0  0  0  0  0  0  0  0
   11.0776  -14.4431   28.1429 C   0  0  0  0  0  0  0  0  0  0  0  0
   10.5383  -15.5757   25.9862 C   0  0  2  0  0  0  0  0  0  0  0  0
    9.6117  -15.9497   24.9619 N   0  0  0  0  0  0  0  0  0  0  0  0
   11.2638  -16.7561   26.5647 C   0  0  0  0  0  0  0  0  0  0  0  0
   12.4824  -16.5413   27.1773 O   0  0  0  0  0  0  0  0  0  0  0  0
   10.7856  -17.9139   26.4998 O   0  0  0  0  0  0  0  0  0  0  0  0
  2  1  1  6
  3  4  1  0
  3  2  1  0
  4  5  2  0
  5  6  1  0
  7  6  2  0
  8  7  1  0
  9  8  2  0
  9  4  1  0
 10  2  1  0
 10 17  1  0
 11 10  2  0
 13 12  1  0
 14 13  1  0
 16 15  1  1
 15 14  1  0
 16 17  1  0
 18 16  1  0
 19 18  2  0
 20 21  1  0
 21 22  1  0
 22 24  1  0
 22 23  1  1
 24 26  1  0
 24 25  1  1
 25 18  1  0
 26 27  1  0
 28 26  2  0
M  END
$$$$
