FMI.pdb
     RDKit          3D

 28 28  0  0  1  0  0  0  0  0999 V2000
    6.1680  -17.4087   19.2804 N   0  0  0  0  0  0  0  0  0  0  0  0
    7.1799  -17.7970   20.2782 C   0  0  1  0  0  0  0  0  0  0  0  0
    8.3915  -16.9452   19.9615 C   0  0  0  0  0  0  0  0  0  0  0  0
    8.1300  -15.5019   20.0297 C   0  0  0  0  0  0  0  0  0  0  0  0
    7.8204  -14.6883   18.9559 C   0  0  0  0  0  0  0  0  0  0  0  0
    7.5831  -13.3438   19.0501 C   0  0  0  0  0  0  0  0  0  0  0  0
    7.6587  -12.7551   20.3137 C   0  0  0  0  0  0  0  0  0  0  0  0
    7.9664  -13.5250   21.4299 C   0  0  0  0  0  0  0  0  0  0  0  0
    8.1959  -14.8735   21.2793 C   0  0  0  0  0  0  0  0  0  0  0  0
    6.6964  -17.4118   21.6346 C   0  0  0  0  0  0  0  0  0  0  0  0
    5.7219  -16.6563   21.7545 O   0  0  0  0  0  0  0  0  0  0  0  0
    6.7000  -20.9376   27.1703 C   0  0  0  0  0  0  0  0  0  0  0  0
    6.0782  -21.4393   25.5281 S   0  0  0  0  0  0  0  0  0  0  0  0
    5.8678  -19.9144   24.5471 C   0  0  0  0  0  0  0  0  0  0  0  0
    7.0159  -19.0065   24.8391 C   0  0  0  0  0  0  0  0  0  0  0  0
    6.9783  -17.6757   24.1503 C   0  0  2  0  0  0  0  0  0  0  0  0
    7.3574  -17.9162   22.7575 N   0  0  0  0  0  0  0  0  0  0  0  0
    7.8399  -16.6513   24.7592 C   0  0  0  0  0  0  0  0  0  0  0  0
    9.0401  -16.5329   24.3988 O   0  0  0  0  0  0  0  0  0  0  0  0
    5.7046  -11.9165   26.6217 C   0  0  0  0  0  0  0  0  0  0  0  0
    6.5792  -12.9108   25.8946 C   0  0  0  0  0  0  0  0  0  0  0  0
    7.5631  -13.5379   26.8707 C   0  0  2  0  0  0  0  0  0  0  0  0
    8.5632  -12.4610   27.2925 C   0  0  0  0  0  0  0  0  0  0  0  0
    8.2403  -14.7338   26.3153 C   0  0  2  0  0  0  0  0  0  0  0  0
    7.3999  -15.7530   25.7651 N   0  0  0  0  0  0  0  0  0  0  0  0
    9.2313  -15.2769   27.3040 C   0  0  0  0  0  0  0  0  0  0  0  0
   10.4360  -14.6193   27.4538 O   0  0  0  0  0  0  0  0  0  0  0  0
    8.9831  -16.3017   27.9832 O   0  0  0  0  0  0  0  0  0  0  0  0
  2  1  1  6
  3  4  1  0
  3  2  1  0
  4  5  2  0
  5  6  1  0
  7  6  2  0
  8  7  1  0
  9  8  2  0
  9  4  1  0
 10  2  1  0
 10 17  1  0
 11 10  2  0
 13 12  1  0
 14 13  1  0
 16 15  1  1
 15 14  1  0
 16 17  1  0
 18 16  1  0
 19 18  2  0
 20 21  1  0
 21 22  1  0
 22 24  1  0
 22 23  1  6
 24 26  1  0
 24 25  1  1
 25 18  1  0
 26 27  1  0
 28 26  2  0
M  END
$$$$
