FMI.pdb
     RDKit          3D

 28 28  0  0  1  0  0  0  0  0999 V2000
    6.4111  -19.0719   21.9212 N   0  0  0  0  0  0  0  0  0  0  0  0
    6.4748  -18.8548   23.3769 C   0  0  1  0  0  0  0  0  0  0  0  0
    7.2067  -20.0630   23.9230 C   0  0  0  0  0  0  0  0  0  0  0  0
    6.9249  -20.3314   25.3388 C   0  0  0  0  0  0  0  0  0  0  0  0
    5.8261  -21.0148   25.8254 C   0  0  0  0  0  0  0  0  0  0  0  0
    5.5889  -21.2484   27.1528 C   0  0  0  0  0  0  0  0  0  0  0  0
    6.5175  -20.7648   28.0763 C   0  0  0  0  0  0  0  0  0  0  0  0
    7.6416  -20.0701   27.6439 C   0  0  0  0  0  0  0  0  0  0  0  0
    7.8323  -19.8629   26.2969 C   0  0  0  0  0  0  0  0  0  0  0  0
    7.3137  -17.6537   23.6519 C   0  0  0  0  0  0  0  0  0  0  0  0
    8.3981  -17.5081   23.0709 O   0  0  0  0  0  0  0  0  0  0  0  0
    6.2205  -10.9146   25.9309 C   0  0  0  0  0  0  0  0  0  0  0  0
    5.9995  -12.3707   27.0108 S   0  0  0  0  0  0  0  0  0  0  0  0
    7.3092  -13.5645   26.5737 C   0  0  0  0  0  0  0  0  0  0  0  0
    6.6964  -14.6571   25.7622 C   0  0  0  0  0  0  0  0  0  0  0  0
    7.6609  -15.6375   25.1660 C   0  0  2  0  0  0  0  0  0  0  0  0
    6.8560  -16.7037   24.5686 N   0  0  0  0  0  0  0  0  0  0  0  0
    8.6359  -16.1877   26.1194 C   0  0  0  0  0  0  0  0  0  0  0  0
    8.2615  -16.9671   27.0342 O   0  0  0  0  0  0  0  0  0  0  0  0
   13.4562  -17.5650   24.0272 C   0  0  0  0  0  0  0  0  0  0  0  0
   12.1067  -17.4178   24.6902 C   0  0  0  0  0  0  0  0  0  0  0  0
   12.2868  -16.9038   26.1106 C   0  0  2  0  0  0  0  0  0  0  0  0
   13.1541  -17.9074   26.8710 C   0  0  0  0  0  0  0  0  0  0  0  0
   10.9980  -16.6541   26.7989 C   0  0  2  0  0  0  0  0  0  0  0  0
   10.0225  -15.8900   26.0832 N   0  0  0  0  0  0  0  0  0  0  0  0
   11.2412  -16.1247   28.1828 C   0  0  0  0  0  0  0  0  0  0  0  0
   10.7833  -14.8591   28.4908 O   0  0  0  0  0  0  0  0  0  0  0  0
   11.8439  -16.8053   29.0469 O   0  0  0  0  0  0  0  0  0  0  0  0
  2  1  1  6
  3  4  1  0
  3  2  1  0
  4  5  2  0
  5  6  1  0
  7  6  2  0
  8  7  1  0
  9  8  2  0
  9  4  1  0
 10  2  1  0
 10 17  1  0
 11 10  2  0
 13 12  1  0
 14 13  1  0
 16 15  1  1
 15 14  1  0
 16 17  1  0
 18 16  1  0
 19 18  2  0
 20 21  1  0
 21 22  1  0
 22 24  1  0
 22 23  1  1
 24 26  1  0
 24 25  1  6
 25 18  1  0
 26 27  1  0
 28 26  2  0
M  END
$$$$
