FMI.pdb
     RDKit          3D

 28 28  0  0  1  0  0  0  0  0999 V2000
    5.3902  -17.2774   25.6318 N   0  0  0  0  0  0  0  0  0  0  0  0
    6.0834  -16.0718   25.1457 C   0  0  1  0  0  0  0  0  0  0  0  0
    6.6097  -15.3914   26.3923 C   0  0  0  0  0  0  0  0  0  0  0  0
    6.3001  -13.9575   26.4552 C   0  0  0  0  0  0  0  0  0  0  0  0
    5.1876  -13.3998   27.0573 C   0  0  0  0  0  0  0  0  0  0  0  0
    4.9245  -12.0574   27.0986 C   0  0  0  0  0  0  0  0  0  0  0  0
    5.8396  -11.1945   26.4930 C   0  0  0  0  0  0  0  0  0  0  0  0
    6.9766  -11.6997   25.8722 C   0  0  0  0  0  0  0  0  0  0  0  0
    7.1933  -13.0586   25.8596 C   0  0  0  0  0  0  0  0  0  0  0  0
    7.2569  -16.4849   24.3246 C   0  0  0  0  0  0  0  0  0  0  0  0
    7.8670  -17.5286   24.5953 O   0  0  0  0  0  0  0  0  0  0  0  0
    8.7282  -12.3923   19.6354 C   0  0  0  0  0  0  0  0  0  0  0  0
    9.4302  -13.9014   18.8837 S   0  0  0  0  0  0  0  0  0  0  0  0
    9.8127  -15.0509   20.2489 C   0  0  0  0  0  0  0  0  0  0  0  0
    8.7321  -14.9399   21.2725 C   0  0  0  0  0  0  0  0  0  0  0  0
    8.8596  -15.8604   22.4486 C   0  0  2  0  0  0  0  0  0  0  0  0
    7.6504  -15.6796   23.2527 N   0  0  0  0  0  0  0  0  0  0  0  0
   10.0666  -15.6457   23.2607 C   0  0  0  0  0  0  0  0  0  0  0  0
   10.7668  -14.6122   23.0993 O   0  0  0  0  0  0  0  0  0  0  0  0
   10.2390  -15.0021   28.4539 C   0  0  0  0  0  0  0  0  0  0  0  0
   10.3981  -15.9549   27.2923 C   0  0  0  0  0  0  0  0  0  0  0  0
   11.3365  -15.3506   26.2586 C   0  0  2  0  0  0  0  0  0  0  0  0
   10.7321  -14.0280   25.7861 C   0  0  0  0  0  0  0  0  0  0  0  0
   11.6120  -16.2677   25.1271 C   0  0  2  0  0  0  0  0  0  0  0  0
   10.5186  -16.5562   24.2503 N   0  0  0  0  0  0  0  0  0  0  0  0
   12.2982  -17.5094   25.6189 C   0  0  0  0  0  0  0  0  0  0  0  0
   13.5494  -17.3853   26.1894 O   0  0  0  0  0  0  0  0  0  0  0  0
   11.7589  -18.6375   25.5200 O   0  0  0  0  0  0  0  0  0  0  0  0
  2  1  1  1
  3  4  1  0
  3  2  1  0
  4  5  2  0
  5  6  1  0
  7  6  2  0
  8  7  1  0
  9  8  2  0
  9  4  1  0
 10  2  1  0
 10 17  1  0
 11 10  2  0
 13 12  1  0
 14 13  1  0
 16 15  1  6
 15 14  1  0
 16 17  1  0
 18 16  1  0
 19 18  2  0
 20 21  1  0
 21 22  1  0
 22 24  1  0
 22 23  1  6
 24 26  1  0
 24 25  1  1
 25 18  1  0
 26 27  1  0
 28 26  2  0
M  END
$$$$
