FMI.pdb
     RDKit          3D

 28 28  0  0  1  0  0  0  0  0999 V2000
    9.3576  -16.1594   19.1647 N   0  0  0  0  0  0  0  0  0  0  0  0
    9.4838  -16.8924   20.4364 C   0  0  1  0  0  0  0  0  0  0  0  0
   10.8002  -17.6341   20.3336 C   0  0  0  0  0  0  0  0  0  0  0  0
   11.1189  -18.4346   21.5226 C   0  0  0  0  0  0  0  0  0  0  0  0
   11.9758  -18.0586   22.5402 C   0  0  0  0  0  0  0  0  0  0  0  0
   12.2551  -18.8279   23.6371 C   0  0  0  0  0  0  0  0  0  0  0  0
   11.6337  -20.0742   23.7349 C   0  0  0  0  0  0  0  0  0  0  0  0
   10.7621  -20.5044   22.7408 C   0  0  0  0  0  0  0  0  0  0  0  0
   10.5159  -19.6911   21.6584 C   0  0  0  0  0  0  0  0  0  0  0  0
    9.6018  -15.9111   21.5522 C   0  0  0  0  0  0  0  0  0  0  0  0
   10.4690  -15.0273   21.5120 O   0  0  0  0  0  0  0  0  0  0  0  0
    6.6138  -11.8242   25.0169 C   0  0  0  0  0  0  0  0  0  0  0  0
    5.7137  -13.2754   25.6642 S   0  0  0  0  0  0  0  0  0  0  0  0
    6.7817  -14.7310   25.3952 C   0  0  0  0  0  0  0  0  0  0  0  0
    7.2851  -14.6904   23.9906 C   0  0  0  0  0  0  0  0  0  0  0  0
    8.7072  -15.1249   23.8015 C   0  0  2  0  0  0  0  0  0  0  0  0
    8.7221  -16.0064   22.6335 N   0  0  0  0  0  0  0  0  0  0  0  0
    9.2996  -15.7925   24.9703 C   0  0  0  0  0  0  0  0  0  0  0  0
    9.0518  -17.0041   25.2045 O   0  0  0  0  0  0  0  0  0  0  0  0
    9.8254  -13.9180   30.2115 C   0  0  0  0  0  0  0  0  0  0  0  0
    9.5893  -14.8048   29.0115 C   0  0  0  0  0  0  0  0  0  0  0  0
   10.8952  -15.0047   28.2571 C   0  0  2  0  0  0  0  0  0  0  0  0
   11.4878  -13.6264   27.9627 C   0  0  0  0  0  0  0  0  0  0  0  0
   10.7286  -15.8096   27.0236 C   0  0  2  0  0  0  0  0  0  0  0  0
   10.1620  -15.1435   25.8909 N   0  0  0  0  0  0  0  0  0  0  0  0
   10.0346  -17.1039   27.3364 C   0  0  0  0  0  0  0  0  0  0  0  0
   10.7177  -18.0539   28.0693 O   0  0  0  0  0  0  0  0  0  0  0  0
    8.8636  -17.3288   26.9476 O   0  0  0  0  0  0  0  0  0  0  0  0
  2  1  1  6
  3  4  1  0
  3  2  1  0
  4  5  2  0
  5  6  1  0
  7  6  2  0
  8  7  1  0
  9  8  2  0
  9  4  1  0
 10  2  1  0
 10 17  1  0
 11 10  2  0
 13 12  1  0
 14 13  1  0
 16 15  1  1
 15 14  1  0
 16 17  1  0
 18 16  1  0
 19 18  2  0
 20 21  1  0
 21 22  1  0
 22 24  1  0
 22 23  1  6
 24 26  1  0
 24 25  1  6
 25 18  1  0
 26 27  1  0
 28 26  2  0
M  END
$$$$
