FMI.pdb
     RDKit          3D

 28 28  0  0  1  0  0  0  0  0999 V2000
    5.7778  -19.6608   23.4167 N   0  0  0  0  0  0  0  0  0  0  0  0
    6.1219  -18.2645   23.7363 C   0  0  1  0  0  0  0  0  0  0  0  0
    5.8947  -18.1351   25.2281 C   0  0  0  0  0  0  0  0  0  0  0  0
    6.1490  -16.7854   25.7471 C   0  0  0  0  0  0  0  0  0  0  0  0
    5.5203  -15.6289   25.3250 C   0  0  0  0  0  0  0  0  0  0  0  0
    5.7799  -14.3825   25.8272 C   0  0  0  0  0  0  0  0  0  0  0  0
    6.7431  -14.2717   26.8317 C   0  0  0  0  0  0  0  0  0  0  0  0
    7.4076  -15.4016   27.2953 C   0  0  0  0  0  0  0  0  0  0  0  0
    7.1080  -16.6317   26.7558 C   0  0  0  0  0  0  0  0  0  0  0  0
    7.5746  -18.0518   23.4786 C   0  0  0  0  0  0  0  0  0  0  0  0
    8.3848  -18.9607   23.7072 O   0  0  0  0  0  0  0  0  0  0  0  0
    8.2329  -11.4027   20.9247 C   0  0  0  0  0  0  0  0  0  0  0  0
    8.5785  -13.1097   20.3755 S   0  0  0  0  0  0  0  0  0  0  0  0
    8.8350  -14.1135   21.8783 C   0  0  0  0  0  0  0  0  0  0  0  0
    9.2494  -15.4854   21.4611 C   0  0  0  0  0  0  0  0  0  0  0  0
    9.3657  -16.4895   22.5679 C   0  0  2  0  0  0  0  0  0  0  0  0
    7.9999  -16.8188   22.9774 N   0  0  0  0  0  0  0  0  0  0  0  0
   10.1635  -16.0376   23.7176 C   0  0  0  0  0  0  0  0  0  0  0  0
   11.3086  -15.5449   23.5434 O   0  0  0  0  0  0  0  0  0  0  0  0
    8.6532  -12.5341   27.3861 C   0  0  0  0  0  0  0  0  0  0  0  0
    9.4572  -13.3808   26.4276 C   0  0  0  0  0  0  0  0  0  0  0  0
    9.8239  -14.6992   27.0920 C   0  0  2  0  0  0  0  0  0  0  0  0
   10.6886  -14.3893   28.3143 C   0  0  0  0  0  0  0  0  0  0  0  0
   10.4944  -15.6425   26.1657 C   0  0  2  0  0  0  0  0  0  0  0  0
    9.7197  -16.1225   25.0624 N   0  0  0  0  0  0  0  0  0  0  0  0
   11.1473  -16.7533   26.9366 C   0  0  0  0  0  0  0  0  0  0  0  0
   12.2478  -16.4531   27.7146 O   0  0  0  0  0  0  0  0  0  0  0  0
   10.7136  -17.9290   26.8839 O   0  0  0  0  0  0  0  0  0  0  0  0
  2  1  1  1
  3  4  1  0
  3  2  1  0
  4  5  2  0
  5  6  1  0
  7  6  2  0
  8  7  1  0
  9  8  2  0
  9  4  1  0
 10  2  1  0
 10 17  1  0
 11 10  2  0
 13 12  1  0
 14 13  1  0
 16 15  1  6
 15 14  1  0
 16 17  1  0
 18 16  1  0
 19 18  2  0
 20 21  1  0
 21 22  1  0
 22 24  1  0
 22 23  1  1
 24 26  1  0
 24 25  1  6
 25 18  1  0
 26 27  1  0
 28 26  2  0
M  END
$$$$
