FMI.pdb
     RDKit          3D

 28 28  0  0  1  0  0  0  0  0999 V2000
    5.6142  -18.6449   24.8722 N   0  0  0  0  0  0  0  0  0  0  0  0
    5.9822  -17.2239   24.7468 C   0  0  1  0  0  0  0  0  0  0  0  0
    6.1281  -16.7284   26.1705 C   0  0  0  0  0  0  0  0  0  0  0  0
    6.4233  -15.2933   26.2666 C   0  0  0  0  0  0  0  0  0  0  0  0
    6.6779  -14.6003   27.4354 C   0  0  0  0  0  0  0  0  0  0  0  0
    6.9487  -13.2601   27.4941 C   0  0  0  0  0  0  0  0  0  0  0  0
    6.9692  -12.5457   26.2948 C   0  0  0  0  0  0  0  0  0  0  0  0
    6.7203  -13.1910   25.0886 C   0  0  0  0  0  0  0  0  0  0  0  0
    6.4534  -14.5410   25.0859 C   0  0  0  0  0  0  0  0  0  0  0  0
    7.3180  -17.1248   24.0928 C   0  0  0  0  0  0  0  0  0  0  0  0
    8.1615  -18.0153   24.2667 O   0  0  0  0  0  0  0  0  0  0  0  0
    7.5281  -12.5063   20.0505 C   0  0  0  0  0  0  0  0  0  0  0  0
    9.2751  -12.9394   19.7417 S   0  0  0  0  0  0  0  0  0  0  0  0
    9.5274  -14.6314   20.3781 C   0  0  0  0  0  0  0  0  0  0  0  0
    8.4307  -14.9381   21.3430 C   0  0  0  0  0  0  0  0  0  0  0  0
    8.8088  -15.8272   22.4891 C   0  0  2  0  0  0  0  0  0  0  0  0
    7.5965  -16.0184   23.2861 N   0  0  0  0  0  0  0  0  0  0  0  0
    9.9076  -15.3134   23.3205 C   0  0  0  0  0  0  0  0  0  0  0  0
   10.0087  -14.0800   23.5504 O   0  0  0  0  0  0  0  0  0  0  0  0
    9.8627  -14.4590   28.3170 C   0  0  0  0  0  0  0  0  0  0  0  0
   10.2890  -15.5401   27.3517 C   0  0  0  0  0  0  0  0  0  0  0  0
   10.7665  -14.9083   26.0528 C   0  0  2  0  0  0  0  0  0  0  0  0
    9.5542  -14.2974   25.3496 C   0  0  0  0  0  0  0  0  0  0  0  0
   11.4879  -15.8648   25.1798 C   0  0  2  0  0  0  0  0  0  0  0  0
   10.9029  -16.1394   23.9031 N   0  0  0  0  0  0  0  0  0  0  0  0
   11.8205  -17.1154   25.9413 C   0  0  0  0  0  0  0  0  0  0  0  0
   12.9068  -17.0952   26.7933 O   0  0  0  0  0  0  0  0  0  0  0  0
   11.1366  -18.1592   25.8155 O   0  0  0  0  0  0  0  0  0  0  0  0
  2  1  1  1
  3  4  1  0
  3  2  1  0
  4  5  2  0
  5  6  1  0
  7  6  2  0
  8  7  1  0
  9  8  2  0
  9  4  1  0
 10  2  1  0
 10 17  1  0
 11 10  2  0
 13 12  1  0
 14 13  1  0
 16 15  1  6
 15 14  1  0
 16 17  1  0
 18 16  1  0
 19 18  2  0
 20 21  1  0
 21 22  1  0
 22 24  1  0
 22 23  1  6
 24 26  1  0
 24 25  1  6
 25 18  1  0
 26 27  1  0
 28 26  2  0
M  END
$$$$
