FMI.pdb
     RDKit          3D

 28 28  0  0  1  0  0  0  0  0999 V2000
    5.7530  -18.2308   25.3151 N   0  0  0  0  0  0  0  0  0  0  0  0
    5.9918  -16.8732   24.7955 C   0  0  1  0  0  0  0  0  0  0  0  0
    6.4874  -16.0782   25.9855 C   0  0  0  0  0  0  0  0  0  0  0  0
    6.3906  -14.6244   25.8035 C   0  0  0  0  0  0  0  0  0  0  0  0
    7.4572  -13.7460   25.7584 C   0  0  0  0  0  0  0  0  0  0  0  0
    7.3357  -12.3934   25.5889 C   0  0  0  0  0  0  0  0  0  0  0  0
    6.0503  -11.8660   25.4526 C   0  0  0  0  0  0  0  0  0  0  0  0
    4.9403  -12.7024   25.4902 C   0  0  0  0  0  0  0  0  0  0  0  0
    5.1186  -14.0560   25.6628 C   0  0  0  0  0  0  0  0  0  0  0  0
    7.0940  -16.9243   23.7933 C   0  0  0  0  0  0  0  0  0  0  0  0
    7.2253  -17.9183   23.0655 O   0  0  0  0  0  0  0  0  0  0  0  0
    8.5829  -12.0171   20.2758 C   0  0  0  0  0  0  0  0  0  0  0  0
    7.4175  -13.2692   20.9155 S   0  0  0  0  0  0  0  0  0  0  0  0
    8.3214  -14.8533   20.9885 C   0  0  0  0  0  0  0  0  0  0  0  0
    9.3382  -14.7636   22.0774 C   0  0  0  0  0  0  0  0  0  0  0  0
    9.3005  -15.8692   23.0889 C   0  0  2  0  0  0  0  0  0  0  0  0
    7.9672  -15.8383   23.6911 N   0  0  0  0  0  0  0  0  0  0  0  0
   10.3445  -15.7848   24.1212 C   0  0  0  0  0  0  0  0  0  0  0  0
   11.4358  -15.2070   23.8770 O   0  0  0  0  0  0  0  0  0  0  0  0
   10.0301  -13.3507   28.5982 C   0  0  0  0  0  0  0  0  0  0  0  0
   10.4793  -14.0323   27.3269 C   0  0  0  0  0  0  0  0  0  0  0  0
   10.9128  -15.4575   27.6352 C   0  0  2  0  0  0  0  0  0  0  0  0
   12.0983  -15.3941   28.5986 C   0  0  0  0  0  0  0  0  0  0  0  0
   11.2329  -16.2371   26.4157 C   0  0  2  0  0  0  0  0  0  0  0  0
   10.2064  -16.3312   25.4230 N   0  0  0  0  0  0  0  0  0  0  0  0
   11.7975  -17.5776   26.7883 C   0  0  0  0  0  0  0  0  0  0  0  0
   11.0026  -18.6939   26.6201 O   0  0  0  0  0  0  0  0  0  0  0  0
   12.9610  -17.6940   27.2421 O   0  0  0  0  0  0  0  0  0  0  0  0
  2  1  1  1
  3  4  1  0
  3  2  1  0
  4  5  2  0
  5  6  1  0
  7  6  2  0
  8  7  1  0
  9  8  2  0
  9  4  1  0
 10  2  1  0
 10 17  1  0
 11 10  2  0
 13 12  1  0
 14 13  1  0
 16 15  1  6
 15 14  1  0
 16 17  1  0
 18 16  1  0
 19 18  2  0
 20 21  1  0
 21 22  1  0
 22 24  1  0
 22 23  1  1
 24 26  1  0
 24 25  1  1
 25 18  1  0
 26 27  1  0
 28 26  2  0
M  END
$$$$
