HCS.pdb
     RDKit          3D

 23 23  0  0  1  0  0  0  0  0999 V2000
   19.0444  -15.2719  -17.7903 N   0  0  0  0  0  0  0  0  0  0  0  0
   19.6298  -14.4277  -16.7661 C   0  0  1  0  0  0  0  0  0  0  0  0
   20.9863  -14.9729  -16.4492 C   0  0  0  0  0  0  0  0  0  0  0  0
   20.9918  -16.3467  -15.9375 C   0  0  0  0  0  0  0  0  0  0  0  0
   20.4051  -16.7932  -14.7818 C   0  0  0  0  0  0  0  0  0  0  0  0
   20.6407  -18.1024  -14.6800 N   0  0  0  0  0  0  0  0  0  0  0  0
   21.3618  -18.4760  -15.7496 C   0  0  0  0  0  0  0  0  0  0  0  0
   21.5890  -17.4056  -16.5382 N   0  0  0  0  0  0  0  0  0  0  0  0
   19.6198  -13.0054  -17.1326 C   0  0  0  0  0  0  0  0  0  0  0  0
   19.9805  -12.6817  -18.2900 O   0  0  0  0  0  0  0  0  0  0  0  0
   19.2301  -11.9578  -16.2717 N   0  0  0  0  0  0  0  0  0  0  0  0
   19.0841  -10.5819  -16.6499 C   0  0  1  0  0  0  0  0  0  0  0  0
   17.6704  -10.0733  -16.5605 C   0  0  0  0  0  0  0  0  0  0  0  0
   16.5109  -11.1143  -17.4882 S   0  0  0  0  0  0  0  0  0  0  0  0
   19.9144   -9.6821  -15.7847 C   0  0  0  0  0  0  0  0  0  0  0  0
   19.9824   -9.8926  -14.5396 O   0  0  0  0  0  0  0  0  0  0  0  0
   23.0729   -7.5249  -17.2021 O   0  0  0  0  0  0  0  0  0  0  0  0
   22.1464   -6.7546  -16.4729 C   0  0  0  0  0  0  0  0  0  0  0  0
   21.4262   -7.6882  -15.4904 C   0  0  2  0  0  0  0  0  0  0  0  0
   20.6369   -8.5888  -16.3159 N   0  0  0  0  0  0  0  0  0  0  0  0
   20.5697   -6.8270  -14.6456 C   0  0  0  0  0  0  0  0  0  0  0  0
   21.0472   -6.3019  -13.4604 O   0  0  0  0  0  0  0  0  0  0  0  0
   19.4106   -6.5722  -15.0025 O   0  0  0  0  0  0  0  0  0  0  0  0
  2  1  1  6
  2  9  1  0
  2  3  1  0
  3  4  1  0
  4  8  1  0
  4  5  2  0
  5  6  1  0
  7  6  1  0
  8  7  2  0
  9 11  1  0
 10  9  2  0
 11 12  1  0
 12 15  1  0
 13 14  1  0
 12 13  1  1
 15 16  2  0
 15 20  1  0
 18 17  1  0
 19 18  1  6
 19 21  1  0
 20 19  1  0
 21 22  1  0
 23 21  2  0
M  END
$$$$
