HCS.pdb
     RDKit          3D

 23 23  0  0  1  0  0  0  0  0999 V2000
   20.9958  -12.5563  -18.7265 N   0  0  0  0  0  0  0  0  0  0  0  0
   20.4000  -11.3411  -18.2044 C   0  0  1  0  0  0  0  0  0  0  0  0
   19.1138  -11.7159  -17.5389 C   0  0  0  0  0  0  0  0  0  0  0  0
   18.1057  -12.2942  -18.4326 C   0  0  0  0  0  0  0  0  0  0  0  0
   17.1412  -11.6136  -19.1295 C   0  0  0  0  0  0  0  0  0  0  0  0
   16.4286  -12.5040  -19.8220 N   0  0  0  0  0  0  0  0  0  0  0  0
   16.9325  -13.7226  -19.5680 C   0  0  0  0  0  0  0  0  0  0  0  0
   17.9691  -13.6141  -18.7119 N   0  0  0  0  0  0  0  0  0  0  0  0
   21.3232  -10.5806  -17.3520 C   0  0  0  0  0  0  0  0  0  0  0  0
   22.2086  -11.2055  -16.7195 O   0  0  0  0  0  0  0  0  0  0  0  0
   21.2921   -9.1799  -17.1857 N   0  0  0  0  0  0  0  0  0  0  0  0
   22.2763   -8.4035  -16.4886 C   0  0  1  0  0  0  0  0  0  0  0  0
   23.6612   -8.5159  -17.0671 C   0  0  0  0  0  0  0  0  0  0  0  0
   24.8445   -7.4345  -16.2192 S   0  0  0  0  0  0  0  0  0  0  0  0
   21.9313   -6.9445  -16.4938 C   0  0  0  0  0  0  0  0  0  0  0  0
   21.9128   -6.3055  -17.5849 O   0  0  0  0  0  0  0  0  0  0  0  0
   19.3694   -3.4946  -14.6680 O   0  0  0  0  0  0  0  0  0  0  0  0
   19.8971   -4.7935  -14.5340 C   0  0  0  0  0  0  0  0  0  0  0  0
   21.2289   -4.8426  -15.2952 C   0  0  2  0  0  0  0  0  0  0  0  0
   21.6204   -6.2434  -15.3058 N   0  0  0  0  0  0  0  0  0  0  0  0
   22.1821   -4.0131  -14.5255 C   0  0  0  0  0  0  0  0  0  0  0  0
   22.3884   -2.6870  -14.8532 O   0  0  0  0  0  0  0  0  0  0  0  0
   22.8037   -4.5106  -13.5759 O   0  0  0  0  0  0  0  0  0  0  0  0
  2  1  1  1
  2  9  1  0
  2  3  1  0
  3  4  1  0
  4  8  1  0
  4  5  2  0
  5  6  1  0
  7  6  1  0
  8  7  2  0
  9 11  1  0
 10  9  2  0
 11 12  1  0
 12 15  1  0
 13 14  1  0
 12 13  1  6
 15 16  2  0
 15 20  1  0
 18 17  1  0
 19 18  1  1
 19 21  1  0
 20 19  1  0
 21 22  1  0
 23 21  2  0
M  END
$$$$
