HCS.pdb
     RDKit          3D

 23 23  0  0  1  0  0  0  0  0999 V2000
   33.7963  -35.8301   -6.6997 N   0  0  0  0  0  0  0  0  0  0  0  0
   33.4785  -34.9929   -5.5584 C   0  0  1  0  0  0  0  0  0  0  0  0
   32.2753  -34.1784   -5.9143 C   0  0  0  0  0  0  0  0  0  0  0  0
   32.5165  -33.1285   -6.9086 C   0  0  0  0  0  0  0  0  0  0  0  0
   33.7128  -32.8231   -7.5043 C   0  0  0  0  0  0  0  0  0  0  0  0
   33.5064  -31.8080   -8.3452 N   0  0  0  0  0  0  0  0  0  0  0  0
   32.2060  -31.4784   -8.2823 C   0  0  0  0  0  0  0  0  0  0  0  0
   31.5776  -32.2827   -7.4005 N   0  0  0  0  0  0  0  0  0  0  0  0
   33.3424  -35.7617   -4.3144 C   0  0  0  0  0  0  0  0  0  0  0  0
   32.9662  -36.9566   -4.3857 O   0  0  0  0  0  0  0  0  0  0  0  0
   33.6058  -35.2540   -3.0247 N   0  0  0  0  0  0  0  0  0  0  0  0
   33.5416  -36.0072   -1.8057 C   0  0  1  0  0  0  0  0  0  0  0  0
   34.5747  -35.6058   -0.7875 C   0  0  0  0  0  0  0  0  0  0  0  0
   36.2633  -35.9263   -1.3662 S   0  0  0  0  0  0  0  0  0  0  0  0
   32.2076  -35.8603   -1.1375 C   0  0  0  0  0  0  0  0  0  0  0  0
   31.5944  -34.7557   -1.1913 O   0  0  0  0  0  0  0  0  0  0  0  0
   28.6312  -38.1807    1.2051 O   0  0  0  0  0  0  0  0  0  0  0  0
   29.9009  -38.2364    0.5983 C   0  0  0  0  0  0  0  0  0  0  0  0
   30.3042  -36.8059    0.2157 C   0  0  2  0  0  0  0  0  0  0  0  0
   31.5981  -36.9272   -0.4375 N   0  0  0  0  0  0  0  0  0  0  0  0
   30.3985  -36.0447    1.4809 C   0  0  0  0  0  0  0  0  0  0  0  0
   29.2938  -35.3967    1.9988 O   0  0  0  0  0  0  0  0  0  0  0  0
   31.4790  -35.9859    2.0849 O   0  0  0  0  0  0  0  0  0  0  0  0
  2  1  1  6
  2  9  1  0
  2  3  1  0
  3  4  1  0
  4  8  1  0
  4  5  2  0
  5  6  1  0
  7  6  1  0
  8  7  2  0
  9 11  1  0
 10  9  2  0
 11 12  1  0
 12 15  1  0
 13 14  1  0
 12 13  1  1
 15 16  2  0
 15 20  1  0
 18 17  1  0
 19 18  1  1
 19 21  1  0
 20 19  1  0
 21 22  1  0
 23 21  2  0
M  END
$$$$
