HCS.pdb
     RDKit          3D

 23 23  0  0  1  0  0  0  0  0999 V2000
   21.2516  -12.6521  -17.1276 N   0  0  0  0  0  0  0  0  0  0  0  0
   21.9420  -11.5705  -17.8045 C   0  0  1  0  0  0  0  0  0  0  0  0
   21.0450  -11.0699  -18.8920 C   0  0  0  0  0  0  0  0  0  0  0  0
   20.7377  -12.0525  -19.9356 C   0  0  0  0  0  0  0  0  0  0  0  0
   19.5024  -12.5590  -20.2463 C   0  0  0  0  0  0  0  0  0  0  0  0
   19.6529  -13.4229  -21.2518 N   0  0  0  0  0  0  0  0  0  0  0  0
   20.9569  -13.4618  -21.5703 C   0  0  0  0  0  0  0  0  0  0  0  0
   21.6436  -12.6221  -20.7685 N   0  0  0  0  0  0  0  0  0  0  0  0
   22.4082  -10.5306  -16.8779 C   0  0  0  0  0  0  0  0  0  0  0  0
   21.7167  -10.2790  -15.8615 O   0  0  0  0  0  0  0  0  0  0  0  0
   23.5915   -9.7804  -17.0435 N   0  0  0  0  0  0  0  0  0  0  0  0
   24.1117   -8.8302  -16.1034 C   0  0  1  0  0  0  0  0  0  0  0  0
   25.6146   -8.7513  -16.0867 C   0  0  0  0  0  0  0  0  0  0  0  0
   26.3705  -10.2728  -15.4524 S   0  0  0  0  0  0  0  0  0  0  0  0
   23.6171   -7.4443  -16.3907 C   0  0  0  0  0  0  0  0  0  0  0  0
   23.6314   -7.0035  -17.5758 O   0  0  0  0  0  0  0  0  0  0  0  0
   22.4998   -5.1368  -13.2596 O   0  0  0  0  0  0  0  0  0  0  0  0
   21.7274   -4.9230  -14.4177 C   0  0  0  0  0  0  0  0  0  0  0  0
   22.5963   -5.2684  -15.6348 C   0  0  2  0  0  0  0  0  0  0  0  0
   23.1268   -6.5967  -15.3705 N   0  0  0  0  0  0  0  0  0  0  0  0
   23.6688   -4.2504  -15.6862 C   0  0  0  0  0  0  0  0  0  0  0  0
   23.3915   -2.9516  -16.0666 O   0  0  0  0  0  0  0  0  0  0  0  0
   24.8295   -4.5634  -15.3852 O   0  0  0  0  0  0  0  0  0  0  0  0
  2  1  1  1
  2  9  1  0
  2  3  1  0
  3  4  1  0
  4  8  1  0
  4  5  2  0
  5  6  1  0
  7  6  1  0
  8  7  2  0
  9 11  1  0
 10  9  2  0
 11 12  1  0
 12 15  1  0
 13 14  1  0
 12 13  1  6
 15 16  2  0
 15 20  1  0
 18 17  1  0
 19 18  1  1
 19 21  1  0
 20 19  1  0
 21 22  1  0
 23 21  2  0
M  END
$$$$
