HCS.pdb
     RDKit          3D

 23 23  0  0  1  0  0  0  0  0999 V2000
   19.4778  -13.7522  -16.2940 N   0  0  0  0  0  0  0  0  0  0  0  0
   18.7433  -12.5408  -16.6062 C   0  0  1  0  0  0  0  0  0  0  0  0
   17.2865  -12.8807  -16.6062 C   0  0  0  0  0  0  0  0  0  0  0  0
   16.8848  -13.8617  -17.6188 C   0  0  0  0  0  0  0  0  0  0  0  0
   17.2091  -13.8446  -18.9506 C   0  0  0  0  0  0  0  0  0  0  0  0
   16.6481  -14.9105  -19.5244 N   0  0  0  0  0  0  0  0  0  0  0  0
   15.9826  -15.5876  -18.5746 C   0  0  0  0  0  0  0  0  0  0  0  0
   16.1167  -14.9557  -17.3905 N   0  0  0  0  0  0  0  0  0  0  0  0
   19.1031  -11.4200  -15.7278 C   0  0  0  0  0  0  0  0  0  0  0  0
   19.0411  -11.5873  -14.4857 O   0  0  0  0  0  0  0  0  0  0  0  0
   19.5197  -10.1495  -16.1782 N   0  0  0  0  0  0  0  0  0  0  0  0
   19.8784   -9.0454  -15.3357 C   0  0  1  0  0  0  0  0  0  0  0  0
   21.3604   -8.7937  -15.2608 C   0  0  0  0  0  0  0  0  0  0  0  0
   21.7587   -7.3742  -14.2049 S   0  0  0  0  0  0  0  0  0  0  0  0
   19.2541   -7.7669  -15.8084 C   0  0  0  0  0  0  0  0  0  0  0  0
   19.5348   -7.3154  -16.9558 O   0  0  0  0  0  0  0  0  0  0  0  0
   15.7677   -6.3148  -14.2885 O   0  0  0  0  0  0  0  0  0  0  0  0
   16.8051   -5.3624  -14.3058 C   0  0  0  0  0  0  0  0  0  0  0  0
   17.7881   -5.7555  -15.4169 C   0  0  2  0  0  0  0  0  0  0  0  0
   18.3482   -7.0339  -15.0074 N   0  0  0  0  0  0  0  0  0  0  0  0
   18.8183   -4.6944  -15.4595 C   0  0  0  0  0  0  0  0  0  0  0  0
   19.9116   -4.7378  -14.6161 O   0  0  0  0  0  0  0  0  0  0  0  0
   18.7019   -3.7551  -16.2594 O   0  0  0  0  0  0  0  0  0  0  0  0
  2  1  1  1
  2  9  1  0
  2  3  1  0
  3  4  1  0
  4  8  1  0
  4  5  2  0
  5  6  1  0
  7  6  1  0
  8  7  2  0
  9 11  1  0
 10  9  2  0
 11 12  1  0
 12 15  1  0
 13 14  1  0
 12 13  1  6
 15 16  2  0
 15 20  1  0
 18 17  1  0
 19 18  1  1
 19 21  1  0
 20 19  1  0
 21 22  1  0
 23 21  2  0
M  END
$$$$
