HCS.pdb
     RDKit          3D

 23 23  0  0  1  0  0  0  0  0999 V2000
   20.3417  -12.3725  -17.6230 N   0  0  0  0  0  0  0  0  0  0  0  0
   21.1203  -11.1486  -17.6023 C   0  0  1  0  0  0  0  0  0  0  0  0
   21.5680  -10.8719  -19.0025 C   0  0  0  0  0  0  0  0  0  0  0  0
   22.4158  -11.9118  -19.5931 C   0  0  0  0  0  0  0  0  0  0  0  0
   22.1093  -12.7075  -20.6665 C   0  0  0  0  0  0  0  0  0  0  0  0
   23.1443  -13.5205  -20.8848 N   0  0  0  0  0  0  0  0  0  0  0  0
   24.0861  -13.2444  -19.9682 C   0  0  0  0  0  0  0  0  0  0  0  0
   23.6550  -12.2534  -19.1610 N   0  0  0  0  0  0  0  0  0  0  0  0
   20.4056  -10.0353  -16.9643 C   0  0  0  0  0  0  0  0  0  0  0  0
   19.1561   -9.9862  -17.0685 O   0  0  0  0  0  0  0  0  0  0  0  0
   21.0237   -9.0000  -16.2316 N   0  0  0  0  0  0  0  0  0  0  0  0
   20.3428   -7.9032  -15.6065 C   0  0  1  0  0  0  0  0  0  0  0  0
   20.6411   -7.7595  -14.1383 C   0  0  0  0  0  0  0  0  0  0  0  0
   19.7573   -8.9881  -13.1392 S   0  0  0  0  0  0  0  0  0  0  0  0
   20.7055   -6.5953  -16.2433 C   0  0  0  0  0  0  0  0  0  0  0  0
   21.9216   -6.2944  -16.4156 O   0  0  0  0  0  0  0  0  0  0  0  0
   18.3558   -4.8201  -18.9147 O   0  0  0  0  0  0  0  0  0  0  0  0
   18.7444   -3.9000  -17.9218 C   0  0  0  0  0  0  0  0  0  0  0  0
   20.0542   -4.4025  -17.2994 C   0  0  2  0  0  0  0  0  0  0  0  0
   19.7238   -5.6695  -16.6660 N   0  0  0  0  0  0  0  0  0  0  0  0
   20.4641   -3.3844  -16.3072 C   0  0  0  0  0  0  0  0  0  0  0  0
   20.8706   -2.1277  -16.7121 O   0  0  0  0  0  0  0  0  0  0  0  0
   20.4437   -3.6591  -15.0990 O   0  0  0  0  0  0  0  0  0  0  0  0
  2  1  1  6
  2  9  1  0
  2  3  1  0
  3  4  1  0
  4  8  1  0
  4  5  2  0
  5  6  1  0
  7  6  1  0
  8  7  2  0
  9 11  1  0
 10  9  2  0
 11 12  1  0
 12 15  1  0
 13 14  1  0
 12 13  1  1
 15 16  2  0
 15 20  1  0
 18 17  1  0
 19 18  1  1
 19 21  1  0
 20 19  1  0
 21 22  1  0
 23 21  2  0
M  END
$$$$
