HCS.pdb
     RDKit          3D

 23 23  0  0  1  0  0  0  0  0999 V2000
   18.9093  -12.2884  -16.8304 N   0  0  0  0  0  0  0  0  0  0  0  0
   19.1951  -10.9283  -17.2463 C   0  0  1  0  0  0  0  0  0  0  0  0
   17.8973  -10.2867  -17.6229 C   0  0  0  0  0  0  0  0  0  0  0  0
   17.2421  -10.8696  -18.7977 C   0  0  0  0  0  0  0  0  0  0  0  0
   17.3512  -10.4393  -20.0947 C   0  0  0  0  0  0  0  0  0  0  0  0
   16.6005  -11.2364  -20.8571 N   0  0  0  0  0  0  0  0  0  0  0  0
   16.0286  -12.1520  -20.0583 C   0  0  0  0  0  0  0  0  0  0  0  0
   16.4126  -11.9422  -18.7824 N   0  0  0  0  0  0  0  0  0  0  0  0
   19.9708  -10.1831  -16.2462 C   0  0  0  0  0  0  0  0  0  0  0  0
   19.5626  -10.1680  -15.0598 O   0  0  0  0  0  0  0  0  0  0  0  0
   21.1580   -9.4713  -16.5192 N   0  0  0  0  0  0  0  0  0  0  0  0
   21.9914   -8.8377  -15.5387 C   0  0  1  0  0  0  0  0  0  0  0  0
   23.4322   -9.2690  -15.5949 C   0  0  0  0  0  0  0  0  0  0  0  0
   23.6645  -10.9551  -14.9691 S   0  0  0  0  0  0  0  0  0  0  0  0
   21.9882   -7.3466  -15.6944 C   0  0  0  0  0  0  0  0  0  0  0  0
   22.4071   -6.8244  -16.7672 O   0  0  0  0  0  0  0  0  0  0  0  0
   19.5813   -5.2329  -13.5015 O   0  0  0  0  0  0  0  0  0  0  0  0
   20.1384   -4.5543  -14.6027 C   0  0  0  0  0  0  0  0  0  0  0  0
   21.5855   -5.0370  -14.7715 C   0  0  2  0  0  0  0  0  0  0  0  0
   21.5270   -6.4869  -14.6708 N   0  0  0  0  0  0  0  0  0  0  0  0
   22.3582   -4.4413  -13.6592 C   0  0  0  0  0  0  0  0  0  0  0  0
   22.7987   -5.2221  -12.6081 O   0  0  0  0  0  0  0  0  0  0  0  0
   22.6146   -3.2289  -13.6678 O   0  0  0  0  0  0  0  0  0  0  0  0
  2  1  1  1
  2  9  1  0
  2  3  1  0
  3  4  1  0
  4  8  1  0
  4  5  2  0
  5  6  1  0
  7  6  1  0
  8  7  2  0
  9 11  1  0
 10  9  2  0
 11 12  1  0
 12 15  1  0
 13 14  1  0
 12 13  1  6
 15 16  2  0
 15 20  1  0
 18 17  1  0
 19 18  1  1
 19 21  1  0
 20 19  1  0
 21 22  1  0
 23 21  2  0
M  END
$$$$
