MSK.pdb
     RDKit          3D

 24 23  0  0  1  0  0  0  0  0999 V2000
    7.2967  -11.5967   20.1643 C   0  0  0  0  0  0  0  0  0  0  0  0
    8.4050  -11.7785   18.7553 S   0  0  0  0  0  0  0  0  0  0  0  0
    8.6275  -13.5249   18.3083 C   0  0  0  0  0  0  0  0  0  0  0  0
    8.4125  -14.4284   19.5006 C   0  0  0  0  0  0  0  0  0  0  0  0
    8.5350  -15.8727   19.1796 C   0  0  2  0  0  0  0  0  0  0  0  0
    7.5609  -16.2713   18.1935 N   0  0  0  0  0  0  0  0  0  0  0  0
    8.4944  -16.7584   20.3586 C   0  0  0  0  0  0  0  0  0  0  0  0
    7.3758  -17.1411   20.7693 O   0  0  0  0  0  0  0  0  0  0  0  0
   11.4799  -19.0679   21.7856 O   0  0  0  0  0  0  0  0  0  0  0  0
   10.2268  -19.0929   22.4407 C   0  0  0  0  0  0  0  0  0  0  0  0
    9.6509  -17.6933   22.4082 C   0  0  2  0  0  0  0  0  0  0  0  0
    9.6526  -17.1991   21.0507 N   0  0  0  0  0  0  0  0  0  0  0  0
   10.4664  -16.8442   23.3111 C   0  0  0  0  0  0  0  0  0  0  0  0
   11.5819  -16.3857   23.0258 O   0  0  0  0  0  0  0  0  0  0  0  0
    9.9280  -16.5369   24.5913 N   0  0  0  0  0  0  0  0  0  0  0  0
   10.7153  -16.2032   25.7323 C   0  0  1  0  0  0  0  0  0  0  0  0
    9.8559  -15.7290   26.9178 C   0  0  0  0  0  0  0  0  0  0  0  0
   10.7259  -15.3384   28.0663 C   0  0  0  0  0  0  0  0  0  0  0  0
   10.0601  -14.8399   29.2910 C   0  0  0  0  0  0  0  0  0  0  0  0
   10.9827  -14.4010   30.3836 C   0  0  0  0  0  0  0  0  0  0  0  0
   10.2601  -13.9636   31.5305 N   0  0  0  0  0  0  0  0  0  0  0  0
   11.6924  -17.2284   26.1471 C   0  0  0  0  0  0  0  0  0  0  0  0
   11.3759  -18.5384   26.4758 O   0  0  0  0  0  0  0  0  0  0  0  0
   12.9019  -16.9003   26.2098 O   0  0  0  0  0  0  0  0  0  0  0  0
  1  2  1  0
  3  2  1  0
  4  3  1  0
  5  4  1  0
  5  6  1  6
  7  8  2  0
  7  5  1  0
  9 10  1  0
 11 10  1  6
 11 12  1  0
 12  7  1  0
 13 11  1  0
 14 13  2  0
 15 13  1  0
 16 15  1  0
 16 17  1  1
 17 18  1  0
 18 19  1  0
 19 20  1  0
 20 21  1  0
 22 16  1  0
 22 23  1  0
 24 22  2  0
M  END
$$$$
