MSK.pdb
     RDKit          3D

 24 23  0  0  1  0  0  0  0  0999 V2000
    6.7730  -10.9779   25.5944 C   0  0  0  0  0  0  0  0  0  0  0  0
    6.2397  -12.0704   26.9243 S   0  0  0  0  0  0  0  0  0  0  0  0
    5.8110  -13.7196   26.2953 C   0  0  0  0  0  0  0  0  0  0  0  0
    6.8733  -14.2420   25.3558 C   0  0  0  0  0  0  0  0  0  0  0  0
    6.5184  -15.5360   24.7205 C   0  0  2  0  0  0  0  0  0  0  0  0
    6.2289  -16.5413   25.7133 N   0  0  0  0  0  0  0  0  0  0  0  0
    7.5115  -16.0209   23.7434 C   0  0  0  0  0  0  0  0  0  0  0  0
    8.2987  -16.9249   24.1032 O   0  0  0  0  0  0  0  0  0  0  0  0
    8.3054  -13.8771   20.3553 O   0  0  0  0  0  0  0  0  0  0  0  0
    8.3753  -15.2724   20.1356 C   0  0  0  0  0  0  0  0  0  0  0  0
    8.6210  -15.9468   21.4683 C   0  0  2  0  0  0  0  0  0  0  0  0
    7.6222  -15.5189   22.4203 N   0  0  0  0  0  0  0  0  0  0  0  0
    9.9948  -15.5994   21.9082 C   0  0  0  0  0  0  0  0  0  0  0  0
   10.5292  -14.4949   21.7344 O   0  0  0  0  0  0  0  0  0  0  0  0
   10.7474  -16.6054   22.5752 N   0  0  0  0  0  0  0  0  0  0  0  0
   11.9782  -16.3669   23.2544 C   0  0  1  0  0  0  0  0  0  0  0  0
   11.7982  -16.2867   24.7808 C   0  0  0  0  0  0  0  0  0  0  0  0
   11.5586  -17.6468   25.3475 C   0  0  0  0  0  0  0  0  0  0  0  0
   11.2982  -17.7465   26.8015 C   0  0  0  0  0  0  0  0  0  0  0  0
   10.9582  -19.1172   27.2949 C   0  0  0  0  0  0  0  0  0  0  0  0
   10.8503  -19.1471   28.7148 N   0  0  0  0  0  0  0  0  0  0  0  0
   13.0875  -17.2677   22.8860 C   0  0  0  0  0  0  0  0  0  0  0  0
   12.9501  -18.4338   22.1473 O   0  0  0  0  0  0  0  0  0  0  0  0
   14.2449  -16.9645   23.2643 O   0  0  0  0  0  0  0  0  0  0  0  0
  1  2  1  0
  3  2  1  0
  4  3  1  0
  5  4  1  0
  5  6  1  1
  7  8  2  0
  7  5  1  0
  9 10  1  0
 11 10  1  6
 11 12  1  0
 12  7  1  0
 13 11  1  0
 14 13  2  0
 15 13  1  0
 16 15  1  0
 16 17  1  1
 17 18  1  0
 18 19  1  0
 19 20  1  0
 20 21  1  0
 22 16  1  0
 22 23  1  0
 24 22  2  0
M  END
$$$$
