MSK.pdb
     RDKit          3D

 24 23  0  0  1  0  0  0  0  0999 V2000
    6.4801  -11.8488   26.9139 C   0  0  0  0  0  0  0  0  0  0  0  0
    7.2069  -11.0630   25.4645 S   0  0  0  0  0  0  0  0  0  0  0  0
    7.0730  -12.1256   23.9975 C   0  0  0  0  0  0  0  0  0  0  0  0
    7.6865  -13.4843   24.2460 C   0  0  0  0  0  0  0  0  0  0  0  0
    7.5915  -14.3996   23.0810 C   0  0  2  0  0  0  0  0  0  0  0  0
    6.2161  -14.6465   22.7237 N   0  0  0  0  0  0  0  0  0  0  0  0
    8.3358  -15.6628   23.2439 C   0  0  0  0  0  0  0  0  0  0  0  0
    7.7788  -16.5992   23.8599 O   0  0  0  0  0  0  0  0  0  0  0  0
   11.8494  -16.2261   21.2410 O   0  0  0  0  0  0  0  0  0  0  0  0
   11.1458  -17.3962   21.6095 C   0  0  0  0  0  0  0  0  0  0  0  0
   10.3856  -17.1058   22.8860 C   0  0  2  0  0  0  0  0  0  0  0  0
    9.6463  -15.8733   22.7409 N   0  0  0  0  0  0  0  0  0  0  0  0
   11.3680  -17.0388   23.9959 C   0  0  0  0  0  0  0  0  0  0  0  0
   11.9655  -16.0101   24.3432 O   0  0  0  0  0  0  0  0  0  0  0  0
   11.6404  -18.2394   24.7084 N   0  0  0  0  0  0  0  0  0  0  0  0
   12.6396  -18.3627   25.7179 C   0  0  1  0  0  0  0  0  0  0  0  0
   12.4053  -19.5820   26.6273 C   0  0  0  0  0  0  0  0  0  0  0  0
   11.7825  -19.1569   27.9156 C   0  0  0  0  0  0  0  0  0  0  0  0
   11.4073  -20.2178   28.8777 C   0  0  0  0  0  0  0  0  0  0  0  0
   10.8924  -19.7299   30.1947 C   0  0  0  0  0  0  0  0  0  0  0  0
   10.4880  -20.8117   31.0283 N   0  0  0  0  0  0  0  0  0  0  0  0
   14.0336  -18.3051   25.2371 C   0  0  0  0  0  0  0  0  0  0  0  0
   15.0373  -17.5347   25.8059 O   0  0  0  0  0  0  0  0  0  0  0  0
   14.3438  -19.0015   24.2404 O   0  0  0  0  0  0  0  0  0  0  0  0
  1  2  1  0
  3  2  1  0
  4  3  1  0
  5  4  1  0
  5  6  1  1
  7  8  2  0
  7  5  1  0
  9 10  1  0
 11 10  1  6
 11 12  1  0
 12  7  1  0
 13 11  1  0
 14 13  2  0
 15 13  1  0
 16 15  1  0
 16 17  1  6
 17 18  1  0
 18 19  1  0
 19 20  1  0
 20 21  1  0
 22 16  1  0
 22 23  1  0
 24 22  2  0
M  END
$$$$
