MSK.pdb
     RDKit          3D

 24 23  0  0  1  0  0  0  0  0999 V2000
    7.2649  -11.3146   18.9451 C   0  0  0  0  0  0  0  0  0  0  0  0
    7.3368  -12.4013   20.3806 S   0  0  0  0  0  0  0  0  0  0  0  0
    7.8290  -14.0858   19.9124 C   0  0  0  0  0  0  0  0  0  0  0  0
    7.9495  -14.9796   21.1251 C   0  0  0  0  0  0  0  0  0  0  0  0
    8.2929  -16.3854   20.7937 C   0  0  2  0  0  0  0  0  0  0  0  0
    7.2153  -17.0315   20.0856 N   0  0  0  0  0  0  0  0  0  0  0  0
    8.7287  -17.1891   21.9514 C   0  0  0  0  0  0  0  0  0  0  0  0
    7.9253  -18.0240   22.4245 O   0  0  0  0  0  0  0  0  0  0  0  0
   12.6079  -17.5406   22.8596 O   0  0  0  0  0  0  0  0  0  0  0  0
   11.7443  -18.4721   23.4814 C   0  0  0  0  0  0  0  0  0  0  0  0
   10.4197  -17.7863   23.7392 C   0  0  2  0  0  0  0  0  0  0  0  0
   10.0070  -17.0672   22.5562 N   0  0  0  0  0  0  0  0  0  0  0  0
   10.5922  -16.8865   24.9062 C   0  0  0  0  0  0  0  0  0  0  0  0
   11.3860  -15.9358   24.9482 O   0  0  0  0  0  0  0  0  0  0  0  0
    9.7897  -17.1347   26.0541 N   0  0  0  0  0  0  0  0  0  0  0  0
    9.8993  -16.4137   27.2793 C   0  0  1  0  0  0  0  0  0  0  0  0
    8.6312  -15.6010   27.5954 C   0  0  0  0  0  0  0  0  0  0  0  0
    8.4823  -14.4738   26.6281 C   0  0  0  0  0  0  0  0  0  0  0  0
    7.2624  -13.6410   26.7297 C   0  0  0  0  0  0  0  0  0  0  0  0
    7.2220  -12.4569   25.8164 C   0  0  0  0  0  0  0  0  0  0  0  0
    6.0531  -11.6724   26.0330 N   0  0  0  0  0  0  0  0  0  0  0  0
   10.3376  -17.2086   28.4428 C   0  0  0  0  0  0  0  0  0  0  0  0
   10.5039  -18.5859   28.4448 O   0  0  0  0  0  0  0  0  0  0  0  0
   10.5809  -16.6026   29.5142 O   0  0  0  0  0  0  0  0  0  0  0  0
  1  2  1  0
  3  2  1  0
  4  3  1  0
  5  4  1  0
  5  6  1  1
  7  8  2  0
  7  5  1  0
  9 10  1  0
 11 10  1  6
 11 12  1  0
 12  7  1  0
 13 11  1  0
 14 13  2  0
 15 13  1  0
 16 15  1  0
 16 17  1  1
 17 18  1  0
 18 19  1  0
 19 20  1  0
 20 21  1  0
 22 16  1  0
 22 23  1  0
 24 22  2  0
M  END
$$$$
