MSK.pdb
     RDKit          3D

 24 23  0  0  1  0  0  0  0  0999 V2000
    6.4627  -10.8417   27.2586 C   0  0  0  0  0  0  0  0  0  0  0  0
    7.1273  -12.2005   26.2795 S   0  0  0  0  0  0  0  0  0  0  0  0
    5.8615  -13.4607   25.9498 C   0  0  0  0  0  0  0  0  0  0  0  0
    6.4449  -14.6459   25.2158 C   0  0  0  0  0  0  0  0  0  0  0  0
    7.6112  -14.3006   24.3647 C   0  0  2  0  0  0  0  0  0  0  0  0
    7.1889  -13.7226   23.1126 N   0  0  0  0  0  0  0  0  0  0  0  0
    8.5512  -15.4166   24.1475 C   0  0  0  0  0  0  0  0  0  0  0  0
    8.9927  -16.0186   25.1520 O   0  0  0  0  0  0  0  0  0  0  0  0
   10.5059  -15.8458   20.5993 O   0  0  0  0  0  0  0  0  0  0  0  0
   10.1366  -17.0958   21.1479 C   0  0  0  0  0  0  0  0  0  0  0  0
    9.9252  -16.9128   22.6356 C   0  0  2  0  0  0  0  0  0  0  0  0
    8.9810  -15.8436   22.8638 N   0  0  0  0  0  0  0  0  0  0  0  0
   11.2452  -16.6313   23.2519 C   0  0  0  0  0  0  0  0  0  0  0  0
   11.8270  -15.5384   23.1964 O   0  0  0  0  0  0  0  0  0  0  0  0
   11.8840  -17.6905   23.9542 N   0  0  0  0  0  0  0  0  0  0  0  0
   13.1591  -17.5805   24.5826 C   0  0  1  0  0  0  0  0  0  0  0  0
   13.3822  -18.6685   25.6481 C   0  0  0  0  0  0  0  0  0  0  0  0
   12.4917  -18.4348   26.8232 C   0  0  0  0  0  0  0  0  0  0  0  0
   12.4702  -19.4690   27.8823 C   0  0  0  0  0  0  0  0  0  0  0  0
   11.5903  -19.1634   29.0529 C   0  0  0  0  0  0  0  0  0  0  0  0
   11.5677  -20.2424   29.9824 N   0  0  0  0  0  0  0  0  0  0  0  0
   14.3093  -17.4779   23.6638 C   0  0  0  0  0  0  0  0  0  0  0  0
   14.3072  -17.8959   22.3410 O   0  0  0  0  0  0  0  0  0  0  0  0
   15.3725  -16.9761   24.1023 O   0  0  0  0  0  0  0  0  0  0  0  0
  1  2  1  0
  3  2  1  0
  4  3  1  0
  5  4  1  0
  5  6  1  6
  7  8  2  0
  7  5  1  0
  9 10  1  0
 11 10  1  6
 11 12  1  0
 12  7  1  0
 13 11  1  0
 14 13  2  0
 15 13  1  0
 16 15  1  0
 16 17  1  6
 17 18  1  0
 18 19  1  0
 19 20  1  0
 20 21  1  0
 22 16  1  0
 22 23  1  0
 24 22  2  0
M  END
$$$$
