MSK.pdb
     RDKit          3D

 24 23  0  0  1  0  0  0  0  0999 V2000
    6.7300  -19.2455   19.7677 C   0  0  0  0  0  0  0  0  0  0  0  0
    6.1822  -18.2293   18.3843 S   0  0  0  0  0  0  0  0  0  0  0  0
    6.3031  -16.4593   18.7736 C   0  0  0  0  0  0  0  0  0  0  0  0
    7.1459  -16.2245   20.0058 C   0  0  0  0  0  0  0  0  0  0  0  0
    7.2874  -14.7905   20.3629 C   0  0  2  0  0  0  0  0  0  0  0  0
    7.7339  -14.0141   19.2324 N   0  0  0  0  0  0  0  0  0  0  0  0
    8.1322  -14.5440   21.5469 C   0  0  0  0  0  0  0  0  0  0  0  0
    9.3553  -14.3489   21.3673 O   0  0  0  0  0  0  0  0  0  0  0  0
    6.4451  -14.8594   25.2809 O   0  0  0  0  0  0  0  0  0  0  0  0
    7.6712  -14.1548   25.2666 C   0  0  0  0  0  0  0  0  0  0  0  0
    8.4604  -14.6083   24.0570 C   0  0  2  0  0  0  0  0  0  0  0  0
    7.6339  -14.5161   22.8757 N   0  0  0  0  0  0  0  0  0  0  0  0
    8.9207  -15.9964   24.3077 C   0  0  0  0  0  0  0  0  0  0  0  0
    8.2692  -17.0131   24.0288 O   0  0  0  0  0  0  0  0  0  0  0  0
   10.1980  -16.1686   24.9095 N   0  0  0  0  0  0  0  0  0  0  0  0
   10.7369  -17.4301   25.2981 C   0  0  1  0  0  0  0  0  0  0  0  0
   12.1552  -17.6560   24.7449 C   0  0  0  0  0  0  0  0  0  0  0  0
   12.6587  -19.0041   25.1418 C   0  0  0  0  0  0  0  0  0  0  0  0
   14.0428  -19.3593   24.7545 C   0  0  0  0  0  0  0  0  0  0  0  0
   14.4891  -20.7257   25.1686 C   0  0  0  0  0  0  0  0  0  0  0  0
   15.8549  -20.9508   24.8334 N   0  0  0  0  0  0  0  0  0  0  0  0
   10.6637  -17.7306   26.7410 C   0  0  0  0  0  0  0  0  0  0  0  0
   10.4426  -16.7902   27.7366 O   0  0  0  0  0  0  0  0  0  0  0  0
   10.8109  -18.9227   27.1042 O   0  0  0  0  0  0  0  0  0  0  0  0
  1  2  1  0
  3  2  1  0
  4  3  1  0
  5  4  1  0
  5  6  1  6
  7  8  2  0
  7  5  1  0
  9 10  1  0
 11 10  1  1
 11 12  1  0
 12  7  1  0
 13 11  1  0
 14 13  2  0
 15 13  1  0
 16 15  1  0
 16 17  1  1
 17 18  1  0
 18 19  1  0
 19 20  1  0
 20 21  1  0
 22 16  1  0
 22 23  1  0
 24 22  2  0
M  END
$$$$
