MSK.pdb
     RDKit          3D

 24 23  0  0  1  0  0  0  0  0999 V2000
    7.4633  -12.1853   20.4233 C   0  0  0  0  0  0  0  0  0  0  0  0
    8.1021  -12.3350   18.7452 S   0  0  0  0  0  0  0  0  0  0  0  0
    7.6365  -13.9238   17.9982 C   0  0  0  0  0  0  0  0  0  0  0  0
    7.7739  -15.0572   18.9884 C   0  0  0  0  0  0  0  0  0  0  0  0
    9.1785  -15.3339   19.3815 C   0  0  2  0  0  0  0  0  0  0  0  0
    9.9488  -15.8111   18.2594 N   0  0  0  0  0  0  0  0  0  0  0  0
    9.3141  -16.2330   20.5433 C   0  0  0  0  0  0  0  0  0  0  0  0
    8.6958  -15.9386   21.5909 O   0  0  0  0  0  0  0  0  0  0  0  0
   12.2917  -19.0866   20.6714 O   0  0  0  0  0  0  0  0  0  0  0  0
   11.0819  -19.4955   21.2789 C   0  0  0  0  0  0  0  0  0  0  0  0
   10.3191  -18.2544   21.6904 C   0  0  2  0  0  0  0  0  0  0  0  0
   10.1059  -17.4110   20.5371 N   0  0  0  0  0  0  0  0  0  0  0  0
   11.1032  -17.5670   22.7459 C   0  0  0  0  0  0  0  0  0  0  0  0
   12.1430  -16.9244   22.5417 O   0  0  0  0  0  0  0  0  0  0  0  0
   10.6258  -17.6531   24.0831 N   0  0  0  0  0  0  0  0  0  0  0  0
   11.2864  -17.0780   25.2081 C   0  0  1  0  0  0  0  0  0  0  0  0
   10.2970  -16.4957   26.2331 C   0  0  0  0  0  0  0  0  0  0  0  0
   11.0349  -15.8247   27.3438 C   0  0  0  0  0  0  0  0  0  0  0  0
   10.2334  -15.2331   28.4390 C   0  0  0  0  0  0  0  0  0  0  0  0
   11.0212  -14.5139   29.4878 C   0  0  0  0  0  0  0  0  0  0  0  0
   10.1685  -13.8392   30.4077 N   0  0  0  0  0  0  0  0  0  0  0  0
   12.2945  -17.9389   25.8565 C   0  0  0  0  0  0  0  0  0  0  0  0
   12.1278  -19.2891   26.1276 O   0  0  0  0  0  0  0  0  0  0  0  0
   13.3871  -17.4200   26.1908 O   0  0  0  0  0  0  0  0  0  0  0  0
  1  2  1  0
  3  2  1  0
  4  3  1  0
  5  4  1  0
  5  6  1  6
  7  8  2  0
  7  5  1  0
  9 10  1  0
 11 10  1  6
 11 12  1  0
 12  7  1  0
 13 11  1  0
 14 13  2  0
 15 13  1  0
 16 15  1  0
 16 17  1  1
 17 18  1  0
 18 19  1  0
 19 20  1  0
 20 21  1  0
 22 16  1  0
 22 23  1  0
 24 22  2  0
M  END
$$$$
