MSK.pdb
     RDKit          3D

 24 23  0  0  1  0  0  0  0  0999 V2000
    7.3321  -11.3054   20.2796 C   0  0  0  0  0  0  0  0  0  0  0  0
    7.9501  -12.9147   20.8041 S   0  0  0  0  0  0  0  0  0  0  0  0
    6.8654  -14.2574   20.2385 C   0  0  0  0  0  0  0  0  0  0  0  0
    7.3479  -15.5999   20.7372 C   0  0  0  0  0  0  0  0  0  0  0  0
    8.8041  -15.8153   20.5448 C   0  0  2  0  0  0  0  0  0  0  0  0
    9.1536  -15.7909   19.1456 N   0  0  0  0  0  0  0  0  0  0  0  0
    9.3274  -17.0264   21.2047 C   0  0  0  0  0  0  0  0  0  0  0  0
    8.9566  -17.2656   22.3759 O   0  0  0  0  0  0  0  0  0  0  0  0
   12.5012  -19.0663   19.5705 O   0  0  0  0  0  0  0  0  0  0  0  0
   11.5819  -19.9060   20.2411 C   0  0  0  0  0  0  0  0  0  0  0  0
   10.8268  -19.0666   21.2493 C   0  0  2  0  0  0  0  0  0  0  0  0
   10.2266  -17.9330   20.5847 N   0  0  0  0  0  0  0  0  0  0  0  0
   11.7839  -18.6512   22.3042 C   0  0  0  0  0  0  0  0  0  0  0  0
   12.3955  -17.5734   22.3120 O   0  0  0  0  0  0  0  0  0  0  0  0
   12.0128  -19.5543   23.3790 N   0  0  0  0  0  0  0  0  0  0  0  0
   12.8594  -19.2766   24.4921 C   0  0  1  0  0  0  0  0  0  0  0  0
   12.5310  -20.1568   25.7111 C   0  0  0  0  0  0  0  0  0  0  0  0
   13.4037  -19.7913   26.8657 C   0  0  0  0  0  0  0  0  0  0  0  0
   13.1560  -20.4759   28.1549 C   0  0  0  0  0  0  0  0  0  0  0  0
   13.9728  -19.9806   29.3061 C   0  0  0  0  0  0  0  0  0  0  0  0
   13.7784  -20.7843   30.4658 N   0  0  0  0  0  0  0  0  0  0  0  0
   14.3059  -19.2733   24.2000 C   0  0  0  0  0  0  0  0  0  0  0  0
   14.9362  -20.1264   23.3060 O   0  0  0  0  0  0  0  0  0  0  0  0
   15.0276  -18.4401   24.7997 O   0  0  0  0  0  0  0  0  0  0  0  0
  1  2  1  0
  3  2  1  0
  4  3  1  0
  5  4  1  0
  5  6  1  6
  7  8  2  0
  7  5  1  0
  9 10  1  0
 11 10  1  6
 11 12  1  0
 12  7  1  0
 13 11  1  0
 14 13  2  0
 15 13  1  0
 16 15  1  0
 16 17  1  1
 17 18  1  0
 18 19  1  0
 19 20  1  0
 20 21  1  0
 22 16  1  0
 22 23  1  0
 24 22  2  0
M  END
$$$$
