MSK.pdb
     RDKit          3D

 24 23  0  0  1  0  0  0  0  0999 V2000
    8.2789  -11.6858   26.5554 C   0  0  0  0  0  0  0  0  0  0  0  0
    6.5193  -12.0603   26.6550 S   0  0  0  0  0  0  0  0  0  0  0  0
    6.0517  -13.3638   25.4796 C   0  0  0  0  0  0  0  0  0  0  0  0
    7.1346  -14.4114   25.3623 C   0  0  0  0  0  0  0  0  0  0  0  0
    6.8341  -15.4650   24.3605 C   0  0  2  0  0  0  0  0  0  0  0  0
    5.5983  -16.1409   24.6706 N   0  0  0  0  0  0  0  0  0  0  0  0
    7.9313  -16.4284   24.1504 C   0  0  0  0  0  0  0  0  0  0  0  0
    7.8658  -17.5325   24.7363 O   0  0  0  0  0  0  0  0  0  0  0  0
   10.8071  -15.7297   21.2858 O   0  0  0  0  0  0  0  0  0  0  0  0
   10.5269  -17.0729   21.6280 C   0  0  0  0  0  0  0  0  0  0  0  0
   10.1252  -17.1128   23.0870 C   0  0  2  0  0  0  0  0  0  0  0  0
    9.0547  -16.1716   23.3217 N   0  0  0  0  0  0  0  0  0  0  0  0
   11.3276  -16.8027   23.8990 C   0  0  0  0  0  0  0  0  0  0  0  0
   11.7524  -15.6588   24.1155 O   0  0  0  0  0  0  0  0  0  0  0  0
   12.0392  -17.8956   24.4670 N   0  0  0  0  0  0  0  0  0  0  0  0
   13.2617  -17.7667   25.1894 C   0  0  1  0  0  0  0  0  0  0  0  0
   13.4905  -18.9346   26.1653 C   0  0  0  0  0  0  0  0  0  0  0  0
   12.5532  -18.8351   27.3229 C   0  0  0  0  0  0  0  0  0  0  0  0
   12.6088  -19.9067   28.3429 C   0  0  0  0  0  0  0  0  0  0  0  0
   11.6263  -19.7714   29.4628 C   0  0  0  0  0  0  0  0  0  0  0  0
   11.7411  -20.8477   30.3886 N   0  0  0  0  0  0  0  0  0  0  0  0
   14.4579  -17.5069   24.3652 C   0  0  0  0  0  0  0  0  0  0  0  0
   15.5116  -16.6836   24.7344 O   0  0  0  0  0  0  0  0  0  0  0  0
   14.5371  -18.0683   23.2458 O   0  0  0  0  0  0  0  0  0  0  0  0
  1  2  1  0
  3  2  1  0
  4  3  1  0
  5  4  1  0
  5  6  1  1
  7  8  2  0
  7  5  1  0
  9 10  1  0
 11 10  1  6
 11 12  1  0
 12  7  1  0
 13 11  1  0
 14 13  2  0
 15 13  1  0
 16 15  1  0
 16 17  1  6
 17 18  1  0
 18 19  1  0
 19 20  1  0
 20 21  1  0
 22 16  1  0
 22 23  1  0
 24 22  2  0
M  END
$$$$
