MSK.pdb
     RDKit          3D

 24 23  0  0  1  0  0  0  0  0999 V2000
    8.0702  -11.3520   20.1918 C   0  0  0  0  0  0  0  0  0  0  0  0
    8.5872  -13.0665   20.3908 S   0  0  0  0  0  0  0  0  0  0  0  0
    7.2969  -14.0582   21.1977 C   0  0  0  0  0  0  0  0  0  0  0  0
    7.7774  -15.4642   21.4739 C   0  0  0  0  0  0  0  0  0  0  0  0
    9.2518  -15.5707   21.6103 C   0  0  2  0  0  0  0  0  0  0  0  0
    9.9074  -15.3798   20.3398 N   0  0  0  0  0  0  0  0  0  0  0  0
    9.7091  -16.8105   22.2661 C   0  0  0  0  0  0  0  0  0  0  0  0
    9.2042  -17.1131   23.3706 O   0  0  0  0  0  0  0  0  0  0  0  0
   12.9448  -18.8630   20.7887 O   0  0  0  0  0  0  0  0  0  0  0  0
   11.9621  -19.7023   21.3630 C   0  0  0  0  0  0  0  0  0  0  0  0
   11.1630  -18.8820   22.3530 C   0  0  2  0  0  0  0  0  0  0  0  0
   10.6884  -17.6767   21.7135 N   0  0  0  0  0  0  0  0  0  0  0  0
   12.0393  -18.5887   23.5138 C   0  0  0  0  0  0  0  0  0  0  0  0
   12.7496  -17.5787   23.6195 O   0  0  0  0  0  0  0  0  0  0  0  0
   12.0633  -19.5335   24.5768 N   0  0  0  0  0  0  0  0  0  0  0  0
   12.8488  -19.3905   25.7580 C   0  0  1  0  0  0  0  0  0  0  0  0
   12.2723  -20.1844   26.9438 C   0  0  0  0  0  0  0  0  0  0  0  0
   13.0864  -19.9470   28.1724 C   0  0  0  0  0  0  0  0  0  0  0  0
   12.6684  -20.6359   29.4144 C   0  0  0  0  0  0  0  0  0  0  0  0
   13.5344  -20.3796   30.6070 C   0  0  0  0  0  0  0  0  0  0  0  0
   13.0805  -21.1056   31.7452 N   0  0  0  0  0  0  0  0  0  0  0  0
   14.2935  -19.6403   25.5898 C   0  0  0  0  0  0  0  0  0  0  0  0
   15.3001  -18.9393   26.2377 O   0  0  0  0  0  0  0  0  0  0  0  0
   14.6475  -20.5529   24.8047 O   0  0  0  0  0  0  0  0  0  0  0  0
  1  2  1  0
  3  2  1  0
  4  3  1  0
  5  4  1  0
  5  6  1  6
  7  8  2  0
  7  5  1  0
  9 10  1  0
 11 10  1  6
 11 12  1  0
 12  7  1  0
 13 11  1  0
 14 13  2  0
 15 13  1  0
 16 15  1  0
 16 17  1  1
 17 18  1  0
 18 19  1  0
 19 20  1  0
 20 21  1  0
 22 16  1  0
 22 23  1  0
 24 22  2  0
M  END
$$$$
