QQP.pdb
     RDKit          3D

 26 26  0  0  1  0  0  0  0  0999 V2000
    9.4538  -12.4273   18.5731 N   0  0  0  0  0  0  0  0  0  0  0  0
    8.7797  -13.5756   17.9870 C   0  0  0  0  0  0  0  0  0  0  0  0
    9.5093  -14.3043   17.2729 O   0  0  0  0  0  0  0  0  0  0  0  0
    7.3540  -13.7809   18.2629 C   0  0  0  0  0  0  0  0  0  0  0  0
    7.0076  -13.7273   19.7091 C   0  0  0  0  0  0  0  0  0  0  0  0
    7.8488  -14.6464   20.5145 C   0  0  2  0  0  0  0  0  0  0  0  0
    8.1352  -15.9282   19.9932 N   0  0  0  0  0  0  0  0  0  0  0  0
    7.2851  -14.6931   21.8921 C   0  0  0  0  0  0  0  0  0  0  0  0
    6.5855  -13.7585   22.3632 O   0  0  0  0  0  0  0  0  0  0  0  0
    7.2287  -19.9201   25.3047 N   0  0  0  0  0  0  0  0  0  0  0  0
    6.9307  -18.9783   26.3271 C   0  0  0  0  0  0  0  0  0  0  0  0
    6.8011  -19.3487   27.5155 O   0  0  0  0  0  0  0  0  0  0  0  0
    6.7736  -17.5326   25.9615 C   0  0  0  0  0  0  0  0  0  0  0  0
    7.1620  -17.3145   24.5421 C   0  0  0  0  0  0  0  0  0  0  0  0
    7.0499  -15.8482   24.1101 C   0  0  2  0  0  0  0  0  0  0  0  0
    7.5331  -15.8083   22.7057 N   0  0  0  0  0  0  0  0  0  0  0  0
    8.0058  -15.0684   24.9024 C   0  0  0  0  0  0  0  0  0  0  0  0
    9.2285  -15.1344   24.4655 O   0  0  0  0  0  0  0  0  0  0  0  0
    7.7631  -14.2771   26.0396 N   0  0  0  0  0  0  0  0  0  0  0  0
    6.5039  -14.1949   26.7462 C   0  0  0  0  0  0  0  0  0  0  0  0
    6.4606  -12.7911   27.2432 C   0  0  0  0  0  0  0  0  0  0  0  0
    7.8331  -12.1958   27.0315 C   0  0  0  0  0  0  0  0  0  0  0  0
    8.6731  -13.4184   26.7259 C   0  0  1  0  0  0  0  0  0  0  0  0
    9.1248  -14.0430   28.0319 C   0  0  0  0  0  0  0  0  0  0  0  0
    9.9832  -13.5073   28.7572 O   0  0  0  0  0  0  0  0  0  0  0  0
    8.5793  -15.2379   28.4422 O   0  0  0  0  0  0  0  0  0  0  0  0
  1  2  1  0
  2  3  2  0
  4  2  1  0
  5  4  1  0
  6  7  1  6
  6  5  1  0
  8  6  1  0
  9  8  2  0
 10 11  1  0
 11 13  1  0
 11 12  2  0
 13 14  1  0
 15 14  1  1
 15 16  1  0
 16  8  1  0
 17 19  1  0
 17 15  1  0
 18 17  2  0
 19 23  1  0
 20 21  1  0
 20 19  1  0
 21 22  1  0
 22 23  1  0
 23 24  1  1
 24 26  1  0
 25 24  2  0
M  END
$$$$
