QQP.pdb
     RDKit          3D

 26 26  0  0  1  0  0  0  0  0999 V2000
    8.3607  -12.4180   17.8408 N   0  0  0  0  0  0  0  0  0  0  0  0
    8.2276  -13.8442   17.5862 C   0  0  0  0  0  0  0  0  0  0  0  0
    8.4529  -14.1890   16.4015 O   0  0  0  0  0  0  0  0  0  0  0  0
    7.8507  -14.7320   18.6910 C   0  0  0  0  0  0  0  0  0  0  0  0
    8.9535  -14.9932   19.6555 C   0  0  0  0  0  0  0  0  0  0  0  0
    8.6320  -16.1128   20.5743 C   0  0  2  0  0  0  0  0  0  0  0  0
    8.0862  -17.2965   20.0285 N   0  0  0  0  0  0  0  0  0  0  0  0
    7.8222  -15.5646   21.6973 C   0  0  0  0  0  0  0  0  0  0  0  0
    7.1072  -14.5363   21.5699 O   0  0  0  0  0  0  0  0  0  0  0  0
    6.3256  -20.1754   25.2597 N   0  0  0  0  0  0  0  0  0  0  0  0
    6.8409  -19.0218   25.9115 C   0  0  0  0  0  0  0  0  0  0  0  0
    6.7753  -18.9117   27.1564 O   0  0  0  0  0  0  0  0  0  0  0  0
    7.4650  -17.9371   25.0857 C   0  0  0  0  0  0  0  0  0  0  0  0
    6.4702  -16.8681   24.8016 C   0  0  0  0  0  0  0  0  0  0  0  0
    7.0831  -15.6531   24.0963 C   0  0  2  0  0  0  0  0  0  0  0  0
    7.8461  -16.2029   22.9459 N   0  0  0  0  0  0  0  0  0  0  0  0
    8.0680  -15.0532   25.0015 C   0  0  0  0  0  0  0  0  0  0  0  0
    9.2978  -15.3752   24.7288 O   0  0  0  0  0  0  0  0  0  0  0  0
    7.8474  -14.1925   26.0919 N   0  0  0  0  0  0  0  0  0  0  0  0
    6.5509  -13.7621   26.5666 C   0  0  0  0  0  0  0  0  0  0  0  0
    6.7924  -12.3819   27.0728 C   0  0  0  0  0  0  0  0  0  0  0  0
    8.2884  -12.1737   27.1169 C   0  0  0  0  0  0  0  0  0  0  0  0
    8.8169  -13.5823   26.9428 C   0  0  1  0  0  0  0  0  0  0  0  0
    8.8530  -14.2643   28.2968 C   0  0  0  0  0  0  0  0  0  0  0  0
    8.0194  -15.1300   28.6218 O   0  0  0  0  0  0  0  0  0  0  0  0
    9.8301  -13.9276   29.2053 O   0  0  0  0  0  0  0  0  0  0  0  0
  1  2  1  0
  2  3  2  0
  4  2  1  0
  5  4  1  0
  6  7  1  6
  6  5  1  0
  8  6  1  0
  9  8  2  0
 10 11  1  0
 11 13  1  0
 11 12  2  0
 13 14  1  0
 15 14  1  1
 15 16  1  0
 16  8  1  0
 17 19  1  0
 17 15  1  0
 18 17  2  0
 19 23  1  0
 20 21  1  0
 20 19  1  0
 21 22  1  0
 22 23  1  0
 23 24  1  1
 24 26  1  0
 25 24  2  0
M  END
$$$$
