QQP.pdb
     RDKit          3D

 26 26  0  0  1  0  0  0  0  0999 V2000
    7.4780  -12.4408   17.3613 N   0  0  0  0  0  0  0  0  0  0  0  0
    7.9011  -13.7834   16.9942 C   0  0  0  0  0  0  0  0  0  0  0  0
    7.8581  -14.0296   15.7650 O   0  0  0  0  0  0  0  0  0  0  0  0
    8.3242  -14.7096   18.0497 C   0  0  0  0  0  0  0  0  0  0  0  0
    8.2999  -14.1174   19.4146 C   0  0  0  0  0  0  0  0  0  0  0  0
    8.9326  -15.0097   20.4170 C   0  0  2  0  0  0  0  0  0  0  0  0
    9.2466  -16.3340   20.0367 N   0  0  0  0  0  0  0  0  0  0  0  0
    8.1238  -14.9409   21.6654 C   0  0  0  0  0  0  0  0  0  0  0  0
    7.4069  -13.9450   21.9469 O   0  0  0  0  0  0  0  0  0  0  0  0
    7.5020  -19.8773   25.4467 N   0  0  0  0  0  0  0  0  0  0  0  0
    6.8572  -18.8949   26.2470 C   0  0  0  0  0  0  0  0  0  0  0  0
    6.3975  -19.1925   27.3723 O   0  0  0  0  0  0  0  0  0  0  0  0
    6.7354  -17.4952   25.7235 C   0  0  0  0  0  0  0  0  0  0  0  0
    7.3941  -17.3825   24.3944 C   0  0  0  0  0  0  0  0  0  0  0  0
    7.3928  -15.9513   23.8458 C   0  0  2  0  0  0  0  0  0  0  0  0
    8.1510  -16.0128   22.5695 N   0  0  0  0  0  0  0  0  0  0  0  0
    8.1793  -15.1159   24.7583 C   0  0  0  0  0  0  0  0  0  0  0  0
    9.4569  -15.1328   24.5178 O   0  0  0  0  0  0  0  0  0  0  0  0
    7.7288  -14.3182   25.8257 N   0  0  0  0  0  0  0  0  0  0  0  0
    6.3663  -14.2599   26.3071 C   0  0  0  0  0  0  0  0  0  0  0  0
    6.2069  -12.8522   26.7680 C   0  0  0  0  0  0  0  0  0  0  0  0
    7.5814  -12.2247   26.7830 C   0  0  0  0  0  0  0  0  0  0  0  0
    8.4890  -13.4291   26.6431 C   0  0  1  0  0  0  0  0  0  0  0  0
    8.7264  -14.0274   28.0162 C   0  0  0  0  0  0  0  0  0  0  0  0
    8.1238  -15.0448   28.4057 O   0  0  0  0  0  0  0  0  0  0  0  0
    9.6321  -13.4402   28.8697 O   0  0  0  0  0  0  0  0  0  0  0  0
  1  2  1  0
  2  3  2  0
  4  2  1  0
  5  4  1  0
  6  7  1  6
  6  5  1  0
  8  6  1  0
  9  8  2  0
 10 11  1  0
 11 13  1  0
 11 12  2  0
 13 14  1  0
 15 14  1  1
 15 16  1  0
 16  8  1  0
 17 19  1  0
 17 15  1  0
 18 17  2  0
 19 23  1  0
 20 21  1  0
 20 19  1  0
 21 22  1  0
 22 23  1  0
 23 24  1  1
 24 26  1  0
 25 24  2  0
M  END
$$$$
