QQP.pdb
     RDKit          3D

 26 26  0  0  1  0  0  0  0  0999 V2000
    8.5509  -12.3683   18.7021 N   0  0  0  0  0  0  0  0  0  0  0  0
    8.8817  -13.5729   17.9565 C   0  0  0  0  0  0  0  0  0  0  0  0
    9.4575  -13.3704   16.8607 O   0  0  0  0  0  0  0  0  0  0  0  0
    8.5258  -14.8790   18.5207 C   0  0  0  0  0  0  0  0  0  0  0  0
    7.8231  -14.7972   19.8299 C   0  0  0  0  0  0  0  0  0  0  0  0
    7.6048  -16.1382   20.4260 C   0  0  2  0  0  0  0  0  0  0  0  0
    6.9020  -17.1044   19.6713 N   0  0  0  0  0  0  0  0  0  0  0  0
    7.0409  -15.9455   21.7907 C   0  0  0  0  0  0  0  0  0  0  0  0
    5.8708  -15.5214   21.9799 O   0  0  0  0  0  0  0  0  0  0  0  0
    7.7603  -19.8809   26.1283 N   0  0  0  0  0  0  0  0  0  0  0  0
    6.4707  -19.6043   25.5976 C   0  0  0  0  0  0  0  0  0  0  0  0
    5.5568  -20.4562   25.6698 O   0  0  0  0  0  0  0  0  0  0  0  0
    6.2202  -18.2758   24.9492 C   0  0  0  0  0  0  0  0  0  0  0  0
    7.4619  -17.4565   24.9557 C   0  0  0  0  0  0  0  0  0  0  0  0
    7.2796  -16.0893   24.2870 C   0  0  2  0  0  0  0  0  0  0  0  0
    7.8270  -16.2410   22.9141 N   0  0  0  0  0  0  0  0  0  0  0  0
    8.1453  -15.1286   24.9774 C   0  0  0  0  0  0  0  0  0  0  0  0
    9.3658  -15.1041   24.5301 O   0  0  0  0  0  0  0  0  0  0  0  0
    7.8203  -14.2530   26.0292 N   0  0  0  0  0  0  0  0  0  0  0  0
    6.5232  -14.1520   26.6607 C   0  0  0  0  0  0  0  0  0  0  0  0
    6.4149  -12.7137   27.0335 C   0  0  0  0  0  0  0  0  0  0  0  0
    7.7801  -12.0949   26.8425 C   0  0  0  0  0  0  0  0  0  0  0  0
    8.6683  -13.3115   26.6856 C   0  0  1  0  0  0  0  0  0  0  0  0
    9.0660  -13.8101   28.0615 C   0  0  0  0  0  0  0  0  0  0  0  0
    9.8609  -13.1830   28.7860 O   0  0  0  0  0  0  0  0  0  0  0  0
    8.5416  -14.9894   28.5386 O   0  0  0  0  0  0  0  0  0  0  0  0
  1  2  1  0
  2  3  2  0
  4  2  1  0
  5  4  1  0
  6  7  1  6
  6  5  1  0
  8  6  1  0
  9  8  2  0
 10 11  1  0
 11 13  1  0
 11 12  2  0
 13 14  1  0
 15 14  1  1
 15 16  1  0
 16  8  1  0
 17 19  1  0
 17 15  1  0
 18 17  2  0
 19 23  1  0
 20 21  1  0
 20 19  1  0
 21 22  1  0
 22 23  1  0
 23 24  1  1
 24 26  1  0
 25 24  2  0
M  END
$$$$
