QQP.pdb
     RDKit          3D

 26 26  0  0  1  0  0  0  0  0999 V2000
    9.1318  -12.5329   18.5971 N   0  0  0  0  0  0  0  0  0  0  0  0
    8.4358  -13.4953   17.7570 C   0  0  0  0  0  0  0  0  0  0  0  0
    8.9002  -13.6126   16.5977 O   0  0  0  0  0  0  0  0  0  0  0  0
    7.2874  -14.2218   18.3087 C   0  0  0  0  0  0  0  0  0  0  0  0
    7.0636  -13.9800   19.7598 C   0  0  0  0  0  0  0  0  0  0  0  0
    7.9719  -14.7949   20.6036 C   0  0  2  0  0  0  0  0  0  0  0  0
    8.2771  -16.1108   20.1885 N   0  0  0  0  0  0  0  0  0  0  0  0
    7.4746  -14.7296   22.0058 C   0  0  0  0  0  0  0  0  0  0  0  0
    6.8743  -13.7200   22.4588 O   0  0  0  0  0  0  0  0  0  0  0  0
    7.1272  -19.8889   25.3961 N   0  0  0  0  0  0  0  0  0  0  0  0
    6.0393  -19.4615   24.5867 C   0  0  0  0  0  0  0  0  0  0  0  0
    5.1275  -20.2592   24.2732 O   0  0  0  0  0  0  0  0  0  0  0  0
    5.9994  -18.0394   24.1132 C   0  0  0  0  0  0  0  0  0  0  0  0
    7.1254  -17.2673   24.7040 C   0  0  0  0  0  0  0  0  0  0  0  0
    7.1474  -15.8024   24.2533 C   0  0  2  0  0  0  0  0  0  0  0  0
    7.6744  -15.8206   22.8642 N   0  0  0  0  0  0  0  0  0  0  0  0
    8.1398  -15.0933   25.0666 C   0  0  0  0  0  0  0  0  0  0  0  0
    9.3631  -15.2428   24.6526 O   0  0  0  0  0  0  0  0  0  0  0  0
    7.9310  -14.2902   26.2024 N   0  0  0  0  0  0  0  0  0  0  0  0
    6.6570  -14.0807   26.8538 C   0  0  0  0  0  0  0  0  0  0  0  0
    6.7399  -12.6845   27.3668 C   0  0  0  0  0  0  0  0  0  0  0  0
    8.1758  -12.2364   27.2235 C   0  0  0  0  0  0  0  0  0  0  0  0
    8.8948  -13.5388   26.9392 C   0  0  1  0  0  0  0  0  0  0  0  0
    9.2185  -14.2187   28.2555 C   0  0  0  0  0  0  0  0  0  0  0  0
    8.5581  -15.1856   28.6785 O   0  0  0  0  0  0  0  0  0  0  0  0
   10.2709  -13.7656   29.0176 O   0  0  0  0  0  0  0  0  0  0  0  0
  1  2  1  0
  2  3  2  0
  4  2  1  0
  5  4  1  0
  6  7  1  6
  6  5  1  0
  8  6  1  0
  9  8  2  0
 10 11  1  0
 11 13  1  0
 11 12  2  0
 13 14  1  0
 15 14  1  1
 15 16  1  0
 16  8  1  0
 17 19  1  0
 17 15  1  0
 18 17  2  0
 19 23  1  0
 20 21  1  0
 20 19  1  0
 21 22  1  0
 22 23  1  0
 23 24  1  1
 24 26  1  0
 25 24  2  0
M  END
$$$$
