QQP.pdb
     RDKit          3D

 26 26  0  0  1  0  0  0  0  0999 V2000
    8.3025  -12.3770   18.3198 N   0  0  0  0  0  0  0  0  0  0  0  0
    8.3403  -13.6669   17.6482 C   0  0  0  0  0  0  0  0  0  0  0  0
    8.7434  -13.6288   16.4610 O   0  0  0  0  0  0  0  0  0  0  0  0
    7.9164  -14.8638   18.3821 C   0  0  0  0  0  0  0  0  0  0  0  0
    7.5018  -14.5933   19.7854 C   0  0  0  0  0  0  0  0  0  0  0  0
    8.4459  -15.1843   20.7655 C   0  0  2  0  0  0  0  0  0  0  0  0
    8.9538  -16.4790   20.5152 N   0  0  0  0  0  0  0  0  0  0  0  0
    7.8421  -15.0498   22.1201 C   0  0  0  0  0  0  0  0  0  0  0  0
    6.8628  -14.2918   22.3464 O   0  0  0  0  0  0  0  0  0  0  0  0
    5.4882  -19.3619   24.8592 N   0  0  0  0  0  0  0  0  0  0  0  0
    6.8435  -19.1861   25.2511 C   0  0  0  0  0  0  0  0  0  0  0  0
    7.3654  -19.9476   26.0960 O   0  0  0  0  0  0  0  0  0  0  0  0
    7.6402  -18.0741   24.6372 C   0  0  0  0  0  0  0  0  0  0  0  0
    6.9766  -16.7661   24.8859 C   0  0  0  0  0  0  0  0  0  0  0  0
    7.8818  -15.5682   24.5776 C   0  0  2  0  0  0  0  0  0  0  0  0
    8.3709  -15.7846   23.1913 N   0  0  0  0  0  0  0  0  0  0  0  0
    9.0558  -15.6510   25.4517 C   0  0  0  0  0  0  0  0  0  0  0  0
   10.0724  -16.2551   24.9115 O   0  0  0  0  0  0  0  0  0  0  0  0
    9.2098  -15.1638   26.7622 N   0  0  0  0  0  0  0  0  0  0  0  0
    8.1472  -14.6271   27.5835 C   0  0  0  0  0  0  0  0  0  0  0  0
    8.8188  -13.5789   28.4019 C   0  0  0  0  0  0  0  0  0  0  0  0
   10.3085  -13.7428   28.2094 C   0  0  0  0  0  0  0  0  0  0  0  0
   10.4019  -15.1001   27.5440 C   0  0  1  0  0  0  0  0  0  0  0  0
   10.4033  -16.1733   28.6155 C   0  0  0  0  0  0  0  0  0  0  0  0
    9.3985  -16.8684   28.8542 O   0  0  0  0  0  0  0  0  0  0  0  0
   11.5416  -16.3984   29.3552 O   0  0  0  0  0  0  0  0  0  0  0  0
  1  2  1  0
  2  3  2  0
  4  2  1  0
  5  4  1  0
  6  7  1  6
  6  5  1  0
  8  6  1  0
  9  8  2  0
 10 11  1  0
 11 13  1  0
 11 12  2  0
 13 14  1  0
 15 14  1  1
 15 16  1  0
 16  8  1  0
 17 19  1  0
 17 15  1  0
 18 17  2  0
 19 23  1  0
 20 21  1  0
 20 19  1  0
 21 22  1  0
 22 23  1  0
 23 24  1  1
 24 26  1  0
 25 24  2  0
M  END
$$$$
