QQP.pdb
     RDKit          3D

 26 26  0  0  1  0  0  0  0  0999 V2000
    9.1938  -12.5129   19.4188 N   0  0  0  0  0  0  0  0  0  0  0  0
    8.8661  -13.3537   18.2776 C   0  0  0  0  0  0  0  0  0  0  0  0
    9.5336  -13.1170   17.2425 O   0  0  0  0  0  0  0  0  0  0  0  0
    7.8184  -14.3700   18.4204 C   0  0  0  0  0  0  0  0  0  0  0  0
    7.2287  -14.4382   19.7849 C   0  0  0  0  0  0  0  0  0  0  0  0
    7.2476  -15.8187   20.3281 C   0  0  2  0  0  0  0  0  0  0  0  0
    6.6553  -16.8506   19.5657 N   0  0  0  0  0  0  0  0  0  0  0  0
    6.7402  -15.7665   21.7271 C   0  0  0  0  0  0  0  0  0  0  0  0
    5.5121  -15.6905   21.9934 O   0  0  0  0  0  0  0  0  0  0  0  0
    7.9834  -19.7566   25.6041 N   0  0  0  0  0  0  0  0  0  0  0  0
    7.4259  -18.8580   26.5543 C   0  0  0  0  0  0  0  0  0  0  0  0
    7.2122  -19.2276   27.7307 O   0  0  0  0  0  0  0  0  0  0  0  0
    7.0968  -17.4590   26.1270 C   0  0  0  0  0  0  0  0  0  0  0  0
    7.4399  -17.2637   24.6926 C   0  0  0  0  0  0  0  0  0  0  0  0
    7.1671  -15.8376   24.2014 C   0  0  2  0  0  0  0  0  0  0  0  0
    7.6477  -15.8013   22.7959 N   0  0  0  0  0  0  0  0  0  0  0  0
    8.0277  -14.9249   24.9601 C   0  0  0  0  0  0  0  0  0  0  0  0
    9.2638  -14.9109   24.5576 O   0  0  0  0  0  0  0  0  0  0  0  0
    7.6837  -14.0843   26.0342 N   0  0  0  0  0  0  0  0  0  0  0  0
    6.3527  -13.9261   26.5772 C   0  0  0  0  0  0  0  0  0  0  0  0
    6.3117  -12.5049   27.0221 C   0  0  0  0  0  0  0  0  0  0  0  0
    7.7249  -11.9734   26.9632 C   0  0  0  0  0  0  0  0  0  0  0  0
    8.5406  -13.2392   26.8009 C   0  0  1  0  0  0  0  0  0  0  0  0
    8.8015  -13.8346   28.1711 C   0  0  0  0  0  0  0  0  0  0  0  0
    9.6012  -13.3181   28.9733 O   0  0  0  0  0  0  0  0  0  0  0  0
    8.1426  -14.9800   28.5548 O   0  0  0  0  0  0  0  0  0  0  0  0
  1  2  1  0
  2  3  2  0
  4  2  1  0
  5  4  1  0
  6  7  1  6
  6  5  1  0
  8  6  1  0
  9  8  2  0
 10 11  1  0
 11 13  1  0
 11 12  2  0
 13 14  1  0
 15 14  1  1
 15 16  1  0
 16  8  1  0
 17 19  1  0
 17 15  1  0
 18 17  2  0
 19 23  1  0
 20 21  1  0
 20 19  1  0
 21 22  1  0
 22 23  1  0
 23 24  1  1
 24 26  1  0
 25 24  2  0
M  END
$$$$
