QQP.pdb
     RDKit          3D

 26 26  0  0  1  0  0  0  0  0999 V2000
   15.3053  -17.7757   24.3370 N   0  0  0  0  0  0  0  0  0  0  0  0
   15.0959  -16.5767   23.5402 C   0  0  0  0  0  0  0  0  0  0  0  0
   16.0897  -15.8150   23.4669 O   0  0  0  0  0  0  0  0  0  0  0  0
   13.7883  -16.3588   22.9128 C   0  0  0  0  0  0  0  0  0  0  0  0
   12.8162  -17.4602   23.1506 C   0  0  0  0  0  0  0  0  0  0  0  0
   11.5417  -17.2406   22.4236 C   0  0  2  0  0  0  0  0  0  0  0  0
   11.5569  -17.2784   21.0111 N   0  0  0  0  0  0  0  0  0  0  0  0
   10.9145  -16.0029   22.9641 C   0  0  0  0  0  0  0  0  0  0  0  0
   11.4879  -15.2778   23.8187 O   0  0  0  0  0  0  0  0  0  0  0  0
    6.6529  -12.3962   19.3763 N   0  0  0  0  0  0  0  0  0  0  0  0
    7.3334  -13.5861   19.7536 C   0  0  0  0  0  0  0  0  0  0  0  0
    7.0627  -14.6762   19.2019 O   0  0  0  0  0  0  0  0  0  0  0  0
    8.3816  -13.5168   20.8235 C   0  0  0  0  0  0  0  0  0  0  0  0
    7.8526  -14.0677   22.1002 C   0  0  0  0  0  0  0  0  0  0  0  0
    8.9579  -14.4333   23.0972 C   0  0  2  0  0  0  0  0  0  0  0  0
    9.6419  -15.6180   22.5173 N   0  0  0  0  0  0  0  0  0  0  0  0
    8.3184  -14.8859   24.3363 C   0  0  0  0  0  0  0  0  0  0  0  0
    8.4659  -16.1562   24.5708 O   0  0  0  0  0  0  0  0  0  0  0  0
    7.5925  -14.1310   25.2752 N   0  0  0  0  0  0  0  0  0  0  0  0
    6.9641  -12.8549   25.0140 C   0  0  0  0  0  0  0  0  0  0  0  0
    7.0728  -12.1277   26.3096 C   0  0  0  0  0  0  0  0  0  0  0  0
    7.5219  -13.1267   27.3506 C   0  0  0  0  0  0  0  0  0  0  0  0
    7.3199  -14.4486   26.6395 C   0  0  1  0  0  0  0  0  0  0  0  0
    5.8784  -14.8855   26.8150 C   0  0  0  0  0  0  0  0  0  0  0  0
    5.0373  -14.7657   25.9049 O   0  0  0  0  0  0  0  0  0  0  0  0
    5.4712  -15.4328   28.0100 O   0  0  0  0  0  0  0  0  0  0  0  0
  1  2  1  0
  2  3  2  0
  4  2  1  0
  5  4  1  0
  6  7  1  6
  6  5  1  0
  8  6  1  0
  9  8  2  0
 10 11  1  0
 11 13  1  0
 11 12  2  0
 13 14  1  0
 15 14  1  6
 15 16  1  0
 16  8  1  0
 17 19  1  0
 17 15  1  0
 18 17  2  0
 19 23  1  0
 20 21  1  0
 20 19  1  0
 21 22  1  0
 22 23  1  0
 23 24  1  6
 24 26  1  0
 25 24  2  0
M  END
$$$$
