QQP.pdb
     RDKit          3D

 26 26  0  0  1  0  0  0  0  0999 V2000
    7.6352  -12.2659   18.1258 N   0  0  0  0  0  0  0  0  0  0  0  0
    8.2882  -13.4239   17.5348 C   0  0  0  0  0  0  0  0  0  0  0  0
    8.6583  -13.2682   16.3466 O   0  0  0  0  0  0  0  0  0  0  0  0
    8.4522  -14.6372   18.3422 C   0  0  0  0  0  0  0  0  0  0  0  0
    7.8711  -14.5336   19.7082 C   0  0  0  0  0  0  0  0  0  0  0  0
    8.0584  -15.7831   20.4860 C   0  0  2  0  0  0  0  0  0  0  0  0
    7.7261  -17.0131   19.8747 N   0  0  0  0  0  0  0  0  0  0  0  0
    7.4051  -15.5988   21.8115 C   0  0  0  0  0  0  0  0  0  0  0  0
    6.5774  -14.6757   22.0294 O   0  0  0  0  0  0  0  0  0  0  0  0
    7.4934  -20.0275   26.1648 N   0  0  0  0  0  0  0  0  0  0  0  0
    7.1134  -18.9314   26.9866 C   0  0  0  0  0  0  0  0  0  0  0  0
    6.9346  -19.0891   28.2151 O   0  0  0  0  0  0  0  0  0  0  0  0
    6.9295  -17.5816   26.3602 C   0  0  0  0  0  0  0  0  0  0  0  0
    7.2105  -17.6478   24.9008 C   0  0  0  0  0  0  0  0  0  0  0  0
    7.1161  -16.2822   24.2112 C   0  0  2  0  0  0  0  0  0  0  0  0
    7.7119  -16.4740   22.8637 N   0  0  0  0  0  0  0  0  0  0  0  0
    7.9943  -15.3518   24.9269 C   0  0  0  0  0  0  0  0  0  0  0  0
    9.2351  -15.3975   24.5414 O   0  0  0  0  0  0  0  0  0  0  0  0
    7.6626  -14.4396   25.9450 N   0  0  0  0  0  0  0  0  0  0  0  0
    6.3384  -14.2455   26.4930 C   0  0  0  0  0  0  0  0  0  0  0  0
    6.3006  -12.7972   26.8397 C   0  0  0  0  0  0  0  0  0  0  0  0
    7.7121  -12.2698   26.7262 C   0  0  0  0  0  0  0  0  0  0  0  0
    8.5278  -13.5431   26.6408 C   0  0  1  0  0  0  0  0  0  0  0  0
    8.8073  -14.0426   28.0451 C   0  0  0  0  0  0  0  0  0  0  0  0
    9.5962  -13.4562   28.8091 O   0  0  0  0  0  0  0  0  0  0  0  0
    8.1780  -15.1769   28.5044 O   0  0  0  0  0  0  0  0  0  0  0  0
  1  2  1  0
  2  3  2  0
  4  2  1  0
  5  4  1  0
  6  7  1  6
  6  5  1  0
  8  6  1  0
  9  8  2  0
 10 11  1  0
 11 13  1  0
 11 12  2  0
 13 14  1  0
 15 14  1  1
 15 16  1  0
 16  8  1  0
 17 19  1  0
 17 15  1  0
 18 17  2  0
 19 23  1  0
 20 21  1  0
 20 19  1  0
 21 22  1  0
 22 23  1  0
 23 24  1  1
 24 26  1  0
 25 24  2  0
M  END
$$$$
