QQP.pdb
     RDKit          3D

 26 26  0  0  1  0  0  0  0  0999 V2000
   10.9926  -14.0757   19.6788 N   0  0  0  0  0  0  0  0  0  0  0  0
   10.2003  -13.8675   18.4765 C   0  0  0  0  0  0  0  0  0  0  0  0
   10.8016  -14.1107   17.4030 O   0  0  0  0  0  0  0  0  0  0  0  0
    8.8154  -13.4032   18.6087 C   0  0  0  0  0  0  0  0  0  0  0  0
    8.2643  -13.5393   19.9842 C   0  0  0  0  0  0  0  0  0  0  0  0
    7.7395  -14.9036   20.2381 C   0  0  2  0  0  0  0  0  0  0  0  0
    6.8665  -15.4774   19.2865 N   0  0  0  0  0  0  0  0  0  0  0  0
    7.1890  -14.9316   21.6215 C   0  0  0  0  0  0  0  0  0  0  0  0
    6.1178  -14.3465   21.9297 O   0  0  0  0  0  0  0  0  0  0  0  0
    7.4224  -19.7977   25.0841 N   0  0  0  0  0  0  0  0  0  0  0  0
    7.1189  -18.8854   26.1314 C   0  0  0  0  0  0  0  0  0  0  0  0
    6.9126  -19.2978   27.2948 O   0  0  0  0  0  0  0  0  0  0  0  0
    7.0494  -17.4198   25.8223 C   0  0  0  0  0  0  0  0  0  0  0  0
    7.3475  -17.1813   24.3845 C   0  0  0  0  0  0  0  0  0  0  0  0
    7.3357  -15.6950   24.0100 C   0  0  2  0  0  0  0  0  0  0  0  0
    7.8751  -15.6280   22.6272 N   0  0  0  0  0  0  0  0  0  0  0  0
    8.3025  -15.0041   24.8686 C   0  0  0  0  0  0  0  0  0  0  0  0
    9.5427  -15.2157   24.5408 O   0  0  0  0  0  0  0  0  0  0  0  0
    8.0548  -14.1607   25.9668 N   0  0  0  0  0  0  0  0  0  0  0  0
    6.7495  -13.7060   26.3923 C   0  0  0  0  0  0  0  0  0  0  0  0
    7.0032  -12.3436   26.9391 C   0  0  0  0  0  0  0  0  0  0  0  0
    8.5004  -12.1762   27.0548 C   0  0  0  0  0  0  0  0  0  0  0  0
    9.0000  -13.5945   26.8736 C   0  0  1  0  0  0  0  0  0  0  0  0
    8.9571  -14.3053   28.2124 C   0  0  0  0  0  0  0  0  0  0  0  0
    8.0411  -15.0935   28.5118 O   0  0  0  0  0  0  0  0  0  0  0  0
    9.9530  -14.0835   29.1358 O   0  0  0  0  0  0  0  0  0  0  0  0
  1  2  1  0
  2  3  2  0
  4  2  1  0
  5  4  1  0
  6  7  1  6
  6  5  1  0
  8  6  1  0
  9  8  2  0
 10 11  1  0
 11 13  1  0
 11 12  2  0
 13 14  1  0
 15 14  1  1
 15 16  1  0
 16  8  1  0
 17 19  1  0
 17 15  1  0
 18 17  2  0
 19 23  1  0
 20 21  1  0
 20 19  1  0
 21 22  1  0
 22 23  1  0
 23 24  1  1
 24 26  1  0
 25 24  2  0
M  END
$$$$
