QME.pdb
     RDKit          3D

 27 26  0  0  1  0  0  0  0  0999 V2000
    9.1657  -13.0359   16.5883 N   0  0  0  0  0  0  0  0  0  0  0  0
    7.9123  -13.7011   16.6937 C   0  0  0  0  0  0  0  0  0  0  0  0
    7.3794  -14.0379   15.6115 O   0  0  0  0  0  0  0  0  0  0  0  0
    7.2779  -13.9801   17.9884 C   0  0  0  0  0  0  0  0  0  0  0  0
    8.1227  -13.6755   19.1905 C   0  0  0  0  0  0  0  0  0  0  0  0
    8.3444  -14.9153   19.9892 C   0  0  2  0  0  0  0  0  0  0  0  0
    7.0731  -15.6278   20.0986 N   0  0  0  0  0  0  0  0  0  0  0  0
    8.8421  -14.5947   21.3755 C   0  0  0  0  0  0  0  0  0  0  0  0
    9.9828  -14.1363   21.4787 O   0  0  0  0  0  0  0  0  0  0  0  0
    7.3277  -11.4670   28.0434 C   0  0  0  0  0  0  0  0  0  0  0  0
    6.4119  -12.5232   26.8743 S   0  0  0  0  0  0  0  0  0  0  0  0
    7.6308  -13.6390   26.0940 C   0  0  0  0  0  0  0  0  0  0  0  0
    7.2474  -13.9033   24.6785 C   0  0  0  0  0  0  0  0  0  0  0  0
    8.3190  -14.6134   23.8713 C   0  0  2  0  0  0  0  0  0  0  0  0
    8.0346  -14.8119   22.4977 N   0  0  0  0  0  0  0  0  0  0  0  0
    8.8836  -15.7240   24.6070 C   0  0  0  0  0  0  0  0  0  0  0  0
    8.1111  -16.7212   24.8289 O   0  0  0  0  0  0  0  0  0  0  0  0
   10.2087  -15.8046   25.0998 N   0  0  0  0  0  0  0  0  0  0  0  0
   10.6930  -17.0004   25.7110 C   0  0  1  0  0  0  0  0  0  0  0  0
   12.1555  -17.2187   25.3891 C   0  0  0  0  0  0  0  0  0  0  0  0
   12.3296  -17.2842   23.8870 C   0  0  0  0  0  0  0  0  0  0  0  0
   13.6195  -16.6642   23.5029 C   0  0  0  0  0  0  0  0  0  0  0  0
   13.9532  -16.5013   22.3049 O   0  0  0  0  0  0  0  0  0  0  0  0
   10.5557  -16.9842   27.1857 C   0  0  0  0  0  0  0  0  0  0  0  0
    9.9893  -15.9600   27.9059 O   0  0  0  0  0  0  0  0  0  0  0  0
   14.4953  -16.2462   24.4905 O   0  0  0  0  0  0  0  0  0  0  0  0
   10.9920  -17.9852   27.8172 O   0  0  0  0  0  0  0  0  0  0  0  0
  2  1  1  0
  3  2  2  0
  4  2  1  0
  5  4  1  0
  5  6  1  0
  6  8  1  0
  6  7  1  1
  8  9  2  0
 11 12  1  0
 11 10  1  0
 13 12  1  0
 14 13  1  1
 15 14  1  0
 15  8  1  0
 16 17  2  0
 16 14  1  0
 18 16  1  0
 19 18  1  0
 19 24  1  0
 19 20  1  1
 21 20  1  0
 22 21  1  0
 23 22  2  0
 24 25  1  0
 26 22  1  0
 27 24  2  0
M  END
$$$$
