QME.pdb
     RDKit          3D

 27 26  0  0  1  0  0  0  0  0999 V2000
   12.9803  -18.9839   20.4078 N   0  0  0  0  0  0  0  0  0  0  0  0
   12.2219  -18.2931   19.4218 C   0  0  0  0  0  0  0  0  0  0  0  0
   12.8685  -17.8539   18.4432 O   0  0  0  0  0  0  0  0  0  0  0  0
   10.7701  -18.1046   19.5374 C   0  0  0  0  0  0  0  0  0  0  0  0
   10.3436  -16.7997   20.1430 C   0  0  0  0  0  0  0  0  0  0  0  0
    9.3461  -17.0384   21.2258 C   0  0  2  0  0  0  0  0  0  0  0  0
    8.0226  -16.6767   20.7225 N   0  0  0  0  0  0  0  0  0  0  0  0
    9.6468  -16.2038   22.4444 C   0  0  0  0  0  0  0  0  0  0  0  0
   10.8233  -16.1322   22.8089 O   0  0  0  0  0  0  0  0  0  0  0  0
    6.5557  -11.0119   27.5864 C   0  0  0  0  0  0  0  0  0  0  0  0
    6.1658  -12.1113   26.1863 S   0  0  0  0  0  0  0  0  0  0  0  0
    7.5897  -13.2377   25.9780 C   0  0  0  0  0  0  0  0  0  0  0  0
    7.4688  -13.9803   24.6919 C   0  0  0  0  0  0  0  0  0  0  0  0
    8.6556  -14.8745   24.3818 C   0  0  2  0  0  0  0  0  0  0  0  0
    8.6247  -15.5385   23.1307 N   0  0  0  0  0  0  0  0  0  0  0  0
    9.0521  -15.6446   25.5407 C   0  0  0  0  0  0  0  0  0  0  0  0
    8.2110  -16.5072   25.9753 O   0  0  0  0  0  0  0  0  0  0  0  0
   10.2825  -15.5292   26.2321 N   0  0  0  0  0  0  0  0  0  0  0  0
   10.5609  -16.3383   27.3748 C   0  0  1  0  0  0  0  0  0  0  0  0
   11.8761  -17.0691   27.2130 C   0  0  0  0  0  0  0  0  0  0  0  0
   12.0221  -17.5175   25.7749 C   0  0  0  0  0  0  0  0  0  0  0  0
   13.2852  -18.2748   25.6101 C   0  0  0  0  0  0  0  0  0  0  0  0
   14.0934  -18.4418   26.5545 O   0  0  0  0  0  0  0  0  0  0  0  0
   10.6360  -15.5513   28.6274 C   0  0  0  0  0  0  0  0  0  0  0  0
   10.8373  -16.0885   29.8761 O   0  0  0  0  0  0  0  0  0  0  0  0
   13.5955  -18.8219   24.3766 O   0  0  0  0  0  0  0  0  0  0  0  0
   10.5049  -14.3003   28.5320 O   0  0  0  0  0  0  0  0  0  0  0  0
  2  1  1  0
  3  2  2  0
  4  2  1  0
  5  4  1  0
  5  6  1  0
  6  8  1  0
  6  7  1  6
  8  9  2  0
 11 12  1  0
 11 10  1  0
 13 12  1  0
 14 13  1  1
 15 14  1  0
 15  8  1  0
 16 17  2  0
 16 14  1  0
 18 16  1  0
 19 18  1  0
 19 24  1  0
 19 20  1  6
 21 20  1  0
 22 21  1  0
 23 22  2  0
 24 25  1  0
 26 22  1  0
 27 24  2  0
M  END
$$$$
