QME.pdb
     RDKit          3D

 27 26  0  0  1  0  0  0  0  0999 V2000
    7.4596  -12.8559   17.2811 N   0  0  0  0  0  0  0  0  0  0  0  0
    7.5090  -14.2695   17.1268 C   0  0  0  0  0  0  0  0  0  0  0  0
    7.1635  -14.7096   16.0063 O   0  0  0  0  0  0  0  0  0  0  0  0
    7.9393  -15.1631   18.2098 C   0  0  0  0  0  0  0  0  0  0  0  0
    8.3915  -14.4729   19.4631 C   0  0  0  0  0  0  0  0  0  0  0  0
    8.7189  -15.4797   20.5135 C   0  0  2  0  0  0  0  0  0  0  0  0
    7.5625  -16.3558   20.6901 N   0  0  0  0  0  0  0  0  0  0  0  0
    9.0322  -14.8179   21.8311 C   0  0  0  0  0  0  0  0  0  0  0  0
   10.0619  -14.1416   21.8975 O   0  0  0  0  0  0  0  0  0  0  0  0
    6.2420  -11.1920   28.1111 C   0  0  0  0  0  0  0  0  0  0  0  0
    5.8575  -12.0033   26.5253 S   0  0  0  0  0  0  0  0  0  0  0  0
    7.3080  -13.0218   26.0800 C   0  0  0  0  0  0  0  0  0  0  0  0
    7.0973  -13.6546   24.7475 C   0  0  0  0  0  0  0  0  0  0  0  0
    8.2927  -14.4421   24.2425 C   0  0  2  0  0  0  0  0  0  0  0  0
    8.1821  -14.9697   22.9324 N   0  0  0  0  0  0  0  0  0  0  0  0
    8.8263  -15.3077   25.2718 C   0  0  0  0  0  0  0  0  0  0  0  0
    9.0539  -14.7739   26.4136 O   0  0  0  0  0  0  0  0  0  0  0  0
    9.1166  -16.6863   25.1281 N   0  0  0  0  0  0  0  0  0  0  0  0
    9.7139  -17.4254   26.1934 C   0  0  1  0  0  0  0  0  0  0  0  0
    9.1126  -18.8105   26.2946 C   0  0  0  0  0  0  0  0  0  0  0  0
    7.6059  -18.7068   26.1963 C   0  0  0  0  0  0  0  0  0  0  0  0
    7.0025  -20.0579   26.2784 C   0  0  0  0  0  0  0  0  0  0  0  0
    6.6008  -20.6742   25.2626 O   0  0  0  0  0  0  0  0  0  0  0  0
   11.1775  -17.5826   26.0293 C   0  0  0  0  0  0  0  0  0  0  0  0
   11.8971  -17.1171   24.9550 O   0  0  0  0  0  0  0  0  0  0  0  0
    6.8722  -20.6719   27.5125 O   0  0  0  0  0  0  0  0  0  0  0  0
   11.7996  -18.1875   26.9448 O   0  0  0  0  0  0  0  0  0  0  0  0
  2  1  1  0
  3  2  2  0
  4  2  1  0
  5  4  1  0
  5  6  1  0
  6  8  1  0
  6  7  1  1
  8  9  2  0
 11 12  1  0
 11 10  1  0
 13 12  1  0
 14 13  1  1
 15 14  1  0
 15  8  1  0
 16 17  2  0
 16 14  1  0
 18 16  1  0
 19 18  1  0
 19 24  1  0
 19 20  1  6
 21 20  1  0
 22 21  1  0
 23 22  2  0
 24 25  1  0
 26 22  1  0
 27 24  2  0
M  END
$$$$
