QME.pdb
     RDKit          3D

 27 26  0  0  1  0  0  0  0  0999 V2000
    9.5293  -13.1039   17.0011 N   0  0  0  0  0  0  0  0  0  0  0  0
    8.1722  -13.5149   16.8820 C   0  0  0  0  0  0  0  0  0  0  0  0
    7.7854  -13.7947   15.7241 O   0  0  0  0  0  0  0  0  0  0  0  0
    7.2755  -13.6089   18.0411 C   0  0  0  0  0  0  0  0  0  0  0  0
    7.9271  -13.3697   19.3714 C   0  0  0  0  0  0  0  0  0  0  0  0
    8.1115  -14.6624   20.0921 C   0  0  2  0  0  0  0  0  0  0  0  0
    6.8336  -15.3715   20.1031 N   0  0  0  0  0  0  0  0  0  0  0  0
    8.5556  -14.4401   21.5153 C   0  0  0  0  0  0  0  0  0  0  0  0
    9.6930  -13.9970   21.6938 O   0  0  0  0  0  0  0  0  0  0  0  0
    8.0794  -12.4156   28.3239 C   0  0  0  0  0  0  0  0  0  0  0  0
    7.7840  -12.6117   26.5363 S   0  0  0  0  0  0  0  0  0  0  0  0
    7.0157  -14.2525   26.2980 C   0  0  0  0  0  0  0  0  0  0  0  0
    6.7091  -14.4676   24.8557 C   0  0  0  0  0  0  0  0  0  0  0  0
    7.9387  -14.6361   23.9819 C   0  0  2  0  0  0  0  0  0  0  0  0
    7.7040  -14.7281   22.5878 N   0  0  0  0  0  0  0  0  0  0  0  0
    8.8774  -15.5686   24.5674 C   0  0  0  0  0  0  0  0  0  0  0  0
    8.3879  -16.6380   25.0743 O   0  0  0  0  0  0  0  0  0  0  0  0
   10.2825  -15.4034   24.6278 N   0  0  0  0  0  0  0  0  0  0  0  0
   11.1319  -16.4813   25.0208 C   0  0  1  0  0  0  0  0  0  0  0  0
   12.5866  -16.1383   24.7834 C   0  0  0  0  0  0  0  0  0  0  0  0
   13.4526  -17.2802   25.2701 C   0  0  0  0  0  0  0  0  0  0  0  0
   14.8151  -17.1559   24.7008 C   0  0  0  0  0  0  0  0  0  0  0  0
   15.1537  -16.1863   23.9808 O   0  0  0  0  0  0  0  0  0  0  0  0
   10.9819  -16.8344   26.4515 C   0  0  0  0  0  0  0  0  0  0  0  0
   11.2224  -18.0810   26.9774 O   0  0  0  0  0  0  0  0  0  0  0  0
   15.7559  -18.1367   24.9651 O   0  0  0  0  0  0  0  0  0  0  0  0
   10.6065  -15.9203   27.2355 O   0  0  0  0  0  0  0  0  0  0  0  0
  2  1  1  0
  3  2  2  0
  4  2  1  0
  5  4  1  0
  5  6  1  0
  6  8  1  0
  6  7  1  1
  8  9  2  0
 11 12  1  0
 11 10  1  0
 13 12  1  0
 14 13  1  1
 15 14  1  0
 15  8  1  0
 16 17  2  0
 16 14  1  0
 18 16  1  0
 19 18  1  0
 19 24  1  0
 19 20  1  1
 21 20  1  0
 22 21  1  0
 23 22  2  0
 24 25  1  0
 26 22  1  0
 27 24  2  0
M  END
$$$$
