QME.pdb
     RDKit          3D

 27 26  0  0  1  0  0  0  0  0999 V2000
    7.2375  -20.2038   19.5239 N   0  0  0  0  0  0  0  0  0  0  0  0
    6.7910  -19.3223   18.5001 C   0  0  0  0  0  0  0  0  0  0  0  0
    6.1947  -19.8590   17.5383 O   0  0  0  0  0  0  0  0  0  0  0  0
    7.0109  -17.8717   18.5618 C   0  0  0  0  0  0  0  0  0  0  0  0
    7.6098  -17.3723   19.8439 C   0  0  0  0  0  0  0  0  0  0  0  0
    7.7808  -15.8918   19.7877 C   0  0  2  0  0  0  0  0  0  0  0  0
    8.6197  -15.5671   18.6359 N   0  0  0  0  0  0  0  0  0  0  0  0
    8.4447  -15.3672   21.0352 C   0  0  0  0  0  0  0  0  0  0  0  0
    9.6674  -15.5019   21.1286 O   0  0  0  0  0  0  0  0  0  0  0  0
    7.0476  -11.6130   27.9206 C   0  0  0  0  0  0  0  0  0  0  0  0
    6.3234  -12.1363   26.3323 S   0  0  0  0  0  0  0  0  0  0  0  0
    7.5345  -13.2466   25.5323 C   0  0  0  0  0  0  0  0  0  0  0  0
    7.0594  -13.6238   24.1713 C   0  0  0  0  0  0  0  0  0  0  0  0
    8.0377  -14.4846   23.3928 C   0  0  2  0  0  0  0  0  0  0  0  0
    7.6953  -14.7519   22.0443 N   0  0  0  0  0  0  0  0  0  0  0  0
    8.5217  -15.5880   24.1937 C   0  0  0  0  0  0  0  0  0  0  0  0
    7.7484  -16.6029   24.3048 O   0  0  0  0  0  0  0  0  0  0  0  0
    9.7693  -15.6440   24.8612 N   0  0  0  0  0  0  0  0  0  0  0  0
   10.2767  -16.8791   25.3663 C   0  0  1  0  0  0  0  0  0  0  0  0
   11.7262  -17.0692   24.9750 C   0  0  0  0  0  0  0  0  0  0  0  0
   12.2068  -18.4109   25.4844 C   0  0  0  0  0  0  0  0  0  0  0  0
   13.6284  -18.6088   25.1156 C   0  0  0  0  0  0  0  0  0  0  0  0
   14.3227  -17.6937   24.6118 O   0  0  0  0  0  0  0  0  0  0  0  0
   10.1949  -16.9693   26.8425 C   0  0  0  0  0  0  0  0  0  0  0  0
   10.3507  -18.1287   27.5637 O   0  0  0  0  0  0  0  0  0  0  0  0
   14.2225  -19.8410   25.3294 O   0  0  0  0  0  0  0  0  0  0  0  0
    9.9657  -15.9019   27.4744 O   0  0  0  0  0  0  0  0  0  0  0  0
  2  1  1  0
  3  2  2  0
  4  2  1  0
  5  4  1  0
  5  6  1  0
  6  8  1  0
  6  7  1  6
  8  9  2  0
 11 12  1  0
 11 10  1  0
 13 12  1  0
 14 13  1  1
 15 14  1  0
 15  8  1  0
 16 17  2  0
 16 14  1  0
 18 16  1  0
 19 18  1  0
 19 24  1  0
 19 20  1  1
 21 20  1  0
 22 21  1  0
 23 22  2  0
 24 25  1  0
 26 22  1  0
 27 24  2  0
M  END
$$$$
