QME.pdb
     RDKit          3D

 27 26  0  0  1  0  0  0  0  0999 V2000
    8.2397  -12.3754   19.0808 N   0  0  0  0  0  0  0  0  0  0  0  0
    8.0942  -13.4795   18.1951 C   0  0  0  0  0  0  0  0  0  0  0  0
    8.6199  -13.3474   17.0660 O   0  0  0  0  0  0  0  0  0  0  0  0
    7.3749  -14.7019   18.5755 C   0  0  0  0  0  0  0  0  0  0  0  0
    8.2474  -15.8708   18.9279 C   0  0  0  0  0  0  0  0  0  0  0  0
    7.7910  -16.4837   20.2086 C   0  0  2  0  0  0  0  0  0  0  0  0
    6.3400  -16.3358   20.3003 N   0  0  0  0  0  0  0  0  0  0  0  0
    8.4240  -15.8079   21.3981 C   0  0  0  0  0  0  0  0  0  0  0  0
    9.6514  -15.6842   21.3957 O   0  0  0  0  0  0  0  0  0  0  0  0
    7.1853  -11.6304   27.9992 C   0  0  0  0  0  0  0  0  0  0  0  0
    6.4487  -12.2319   26.4447 S   0  0  0  0  0  0  0  0  0  0  0  0
    7.5231  -13.5757   25.8286 C   0  0  0  0  0  0  0  0  0  0  0  0
    7.0373  -14.0496   24.5019 C   0  0  0  0  0  0  0  0  0  0  0  0
    8.0307  -14.9227   23.7570 C   0  0  2  0  0  0  0  0  0  0  0  0
    7.6419  -15.3414   22.4607 N   0  0  0  0  0  0  0  0  0  0  0  0
    8.6232  -15.9110   24.6319 C   0  0  0  0  0  0  0  0  0  0  0  0
    7.8467  -16.8275   25.0763 O   0  0  0  0  0  0  0  0  0  0  0  0
    9.9795  -15.9538   25.0370 N   0  0  0  0  0  0  0  0  0  0  0  0
   10.4987  -17.0793   25.7453 C   0  0  1  0  0  0  0  0  0  0  0  0
   11.9412  -17.3378   25.3678 C   0  0  0  0  0  0  0  0  0  0  0  0
   12.4830  -18.4665   26.2182 C   0  0  0  0  0  0  0  0  0  0  0  0
   13.9018  -18.7197   25.8730 C   0  0  0  0  0  0  0  0  0  0  0  0
   14.8048  -17.8777   26.0939 O   0  0  0  0  0  0  0  0  0  0  0  0
   10.4440  -16.9041   27.2151 C   0  0  0  0  0  0  0  0  0  0  0  0
   10.4153  -17.9347   28.1237 O   0  0  0  0  0  0  0  0  0  0  0  0
   14.2559  -19.9227   25.2862 O   0  0  0  0  0  0  0  0  0  0  0  0
   10.4224  -15.7222   27.6553 O   0  0  0  0  0  0  0  0  0  0  0  0
  2  1  1  0
  3  2  2  0
  4  2  1  0
  5  4  1  0
  5  6  1  0
  6  8  1  0
  6  7  1  1
  8  9  2  0
 11 12  1  0
 11 10  1  0
 13 12  1  0
 14 13  1  1
 15 14  1  0
 15  8  1  0
 16 17  2  0
 16 14  1  0
 18 16  1  0
 19 18  1  0
 19 24  1  0
 19 20  1  6
 21 20  1  0
 22 21  1  0
 23 22  2  0
 24 25  1  0
 26 22  1  0
 27 24  2  0
M  END
$$$$
