QME.pdb
     RDKit          3D

 27 26  0  0  1  0  0  0  0  0999 V2000
    9.4123  -13.0663   16.5303 N   0  0  0  0  0  0  0  0  0  0  0  0
    8.1834  -13.7827   16.5652 C   0  0  0  0  0  0  0  0  0  0  0  0
    7.7483  -14.1761   15.4587 O   0  0  0  0  0  0  0  0  0  0  0  0
    7.4652  -14.0492   17.8181 C   0  0  0  0  0  0  0  0  0  0  0  0
    8.1967  -13.6554   19.0677 C   0  0  0  0  0  0  0  0  0  0  0  0
    8.4717  -14.8603   19.9024 C   0  0  2  0  0  0  0  0  0  0  0  0
    7.2599  -15.6758   19.9498 N   0  0  0  0  0  0  0  0  0  0  0  0
    8.8554  -14.4788   21.3093 C   0  0  0  0  0  0  0  0  0  0  0  0
    9.9876  -14.0219   21.4862 O   0  0  0  0  0  0  0  0  0  0  0  0
    6.8165  -12.0235   28.4108 C   0  0  0  0  0  0  0  0  0  0  0  0
    6.3758  -12.1552   26.6474 S   0  0  0  0  0  0  0  0  0  0  0  0
    7.3268  -13.5570   25.9617 C   0  0  0  0  0  0  0  0  0  0  0  0
    7.1057  -13.6527   24.4912 C   0  0  0  0  0  0  0  0  0  0  0  0
    8.1553  -14.4711   23.7614 C   0  0  2  0  0  0  0  0  0  0  0  0
    7.9557  -14.6400   22.3690 N   0  0  0  0  0  0  0  0  0  0  0  0
    8.5447  -15.6338   24.5295 C   0  0  0  0  0  0  0  0  0  0  0  0
    7.6343  -16.5050   24.7587 O   0  0  0  0  0  0  0  0  0  0  0  0
    9.8376  -15.8916   25.0463 N   0  0  0  0  0  0  0  0  0  0  0  0
   10.1632  -17.1629   25.6084 C   0  0  1  0  0  0  0  0  0  0  0  0
   11.4274  -17.7200   24.9906 C   0  0  0  0  0  0  0  0  0  0  0  0
   12.5669  -16.7538   25.2332 C   0  0  0  0  0  0  0  0  0  0  0  0
   13.4917  -16.7663   24.0754 C   0  0  0  0  0  0  0  0  0  0  0  0
   13.9387  -17.8317   23.5873 O   0  0  0  0  0  0  0  0  0  0  0  0
   10.3685  -17.1037   27.0741 C   0  0  0  0  0  0  0  0  0  0  0  0
   10.5919  -18.1972   27.8760 O   0  0  0  0  0  0  0  0  0  0  0  0
   13.8836  -15.5677   23.5036 O   0  0  0  0  0  0  0  0  0  0  0  0
   10.3343  -15.9654   27.6165 O   0  0  0  0  0  0  0  0  0  0  0  0
  2  1  1  0
  3  2  2  0
  4  2  1  0
  5  4  1  0
  5  6  1  0
  6  8  1  0
  6  7  1  1
  8  9  2  0
 11 12  1  0
 11 10  1  0
 13 12  1  0
 14 13  1  1
 15 14  1  0
 15  8  1  0
 16 17  2  0
 16 14  1  0
 18 16  1  0
 19 18  1  0
 19 24  1  0
 19 20  1  6
 21 20  1  0
 22 21  1  0
 23 22  2  0
 24 25  1  0
 26 22  1  0
 27 24  2  0
M  END
$$$$
