QME.pdb
     RDKit          3D

 27 26  0  0  1  0  0  0  0  0999 V2000
    8.0357  -12.2290   17.0533 N   0  0  0  0  0  0  0  0  0  0  0  0
    7.7413  -13.6206   17.0936 C   0  0  0  0  0  0  0  0  0  0  0  0
    7.9190  -14.2481   16.0244 O   0  0  0  0  0  0  0  0  0  0  0  0
    7.2600  -14.2864   18.3107 C   0  0  0  0  0  0  0  0  0  0  0  0
    8.0892  -14.0469   19.5381 C   0  0  0  0  0  0  0  0  0  0  0  0
    8.0537  -15.2466   20.4234 C   0  0  2  0  0  0  0  0  0  0  0  0
    6.6600  -15.6501   20.5987 N   0  0  0  0  0  0  0  0  0  0  0  0
    8.6469  -14.9491   21.7768 C   0  0  0  0  0  0  0  0  0  0  0  0
    9.8513  -14.6865   21.8249 O   0  0  0  0  0  0  0  0  0  0  0  0
    7.3440  -11.8175   27.5619 C   0  0  0  0  0  0  0  0  0  0  0  0
    6.1748  -11.8774   26.1653 S   0  0  0  0  0  0  0  0  0  0  0  0
    7.0080  -12.7741   24.8084 C   0  0  0  0  0  0  0  0  0  0  0  0
    7.2890  -14.1779   25.2216 C   0  0  0  0  0  0  0  0  0  0  0  0
    8.2361  -14.9165   24.2934 C   0  0  2  0  0  0  0  0  0  0  0  0
    7.8546  -14.9720   22.9302 N   0  0  0  0  0  0  0  0  0  0  0  0
    8.7288  -16.1330   24.9025 C   0  0  0  0  0  0  0  0  0  0  0  0
    7.8581  -17.0260   25.1936 O   0  0  0  0  0  0  0  0  0  0  0  0
   10.0824  -16.4212   25.2024 N   0  0  0  0  0  0  0  0  0  0  0  0
   10.4652  -17.6986   25.7121 C   0  0  1  0  0  0  0  0  0  0  0  0
   11.6493  -18.2527   24.9499 C   0  0  0  0  0  0  0  0  0  0  0  0
   12.6988  -17.1716   24.8073 C   0  0  0  0  0  0  0  0  0  0  0  0
   13.8434  -17.6832   24.0171 C   0  0  0  0  0  0  0  0  0  0  0  0
   13.8769  -18.8540   23.5686 O   0  0  0  0  0  0  0  0  0  0  0  0
   10.8354  -17.6540   27.1456 C   0  0  0  0  0  0  0  0  0  0  0  0
   11.1722  -18.7525   27.8995 O   0  0  0  0  0  0  0  0  0  0  0  0
   14.9187  -16.8503   23.7579 O   0  0  0  0  0  0  0  0  0  0  0  0
   10.8393  -16.5240   27.7061 O   0  0  0  0  0  0  0  0  0  0  0  0
  2  1  1  0
  3  2  2  0
  4  2  1  0
  5  4  1  0
  5  6  1  0
  6  8  1  0
  6  7  1  1
  8  9  2  0
 11 12  1  0
 11 10  1  0
 13 12  1  0
 14 13  1  1
 15 14  1  0
 15  8  1  0
 16 17  2  0
 16 14  1  0
 18 16  1  0
 19 18  1  0
 19 24  1  0
 19 20  1  6
 21 20  1  0
 22 21  1  0
 23 22  2  0
 24 25  1  0
 26 22  1  0
 27 24  2  0
M  END
$$$$
