QME.pdb
     RDKit          3D

 27 26  0  0  1  0  0  0  0  0999 V2000
    8.7834  -12.2193   17.7921 N   0  0  0  0  0  0  0  0  0  0  0  0
    8.4839  -13.4285   17.1044 C   0  0  0  0  0  0  0  0  0  0  0  0
    8.7890  -13.4568   15.8901 O   0  0  0  0  0  0  0  0  0  0  0  0
    7.8572  -14.5768   17.7717 C   0  0  0  0  0  0  0  0  0  0  0  0
    7.5635  -14.3833   19.2304 C   0  0  0  0  0  0  0  0  0  0  0  0
    8.1915  -15.4749   20.0294 C   0  0  2  0  0  0  0  0  0  0  0  0
    7.2034  -16.5346   20.2205 N   0  0  0  0  0  0  0  0  0  0  0  0
    8.6396  -14.9795   21.3807 C   0  0  0  0  0  0  0  0  0  0  0  0
    9.7751  -14.5046   21.4647 O   0  0  0  0  0  0  0  0  0  0  0  0
    7.0737  -12.2689   28.4063 C   0  0  0  0  0  0  0  0  0  0  0  0
    6.9530  -12.1431   26.5923 S   0  0  0  0  0  0  0  0  0  0  0  0
    6.8729  -13.8490   25.9420 C   0  0  0  0  0  0  0  0  0  0  0  0
    6.8741  -13.8275   24.4521 C   0  0  0  0  0  0  0  0  0  0  0  0
    8.0037  -14.6240   23.8245 C   0  0  2  0  0  0  0  0  0  0  0  0
    7.7936  -15.0589   22.4926 N   0  0  0  0  0  0  0  0  0  0  0  0
    8.5612  -15.5755   24.7611 C   0  0  0  0  0  0  0  0  0  0  0  0
    7.8089  -16.5524   25.1076 O   0  0  0  0  0  0  0  0  0  0  0  0
    9.8593  -15.5217   25.3244 N   0  0  0  0  0  0  0  0  0  0  0  0
   10.4225  -16.6579   25.9800 C   0  0  1  0  0  0  0  0  0  0  0  0
   11.9053  -16.7658   25.6977 C   0  0  0  0  0  0  0  0  0  0  0  0
   12.1289  -16.7502   24.2009 C   0  0  0  0  0  0  0  0  0  0  0  0
   13.5729  -16.9055   23.9066 C   0  0  0  0  0  0  0  0  0  0  0  0
   14.1045  -18.0290   23.7381 O   0  0  0  0  0  0  0  0  0  0  0  0
   10.2477  -16.6139   27.4502 C   0  0  0  0  0  0  0  0  0  0  0  0
    9.6372  -15.5898   28.1336 O   0  0  0  0  0  0  0  0  0  0  0  0
   14.3737  -15.7800   23.8118 O   0  0  0  0  0  0  0  0  0  0  0  0
   10.6935  -17.5894   28.1142 O   0  0  0  0  0  0  0  0  0  0  0  0
  2  1  1  0
  3  2  2  0
  4  2  1  0
  5  4  1  0
  5  6  1  0
  6  8  1  0
  6  7  1  1
  8  9  2  0
 11 12  1  0
 11 10  1  0
 13 12  1  0
 14 13  1  1
 15 14  1  0
 15  8  1  0
 16 17  2  0
 16 14  1  0
 18 16  1  0
 19 18  1  0
 19 24  1  0
 19 20  1  1
 21 20  1  0
 22 21  1  0
 23 22  2  0
 24 25  1  0
 26 22  1  0
 27 24  2  0
M  END
$$$$
