QME.pdb
     RDKit          3D

 27 26  0  0  1  0  0  0  0  0999 V2000
    8.0006  -12.5739   17.8334 N   0  0  0  0  0  0  0  0  0  0  0  0
    7.9945  -13.8484   17.2007 C   0  0  0  0  0  0  0  0  0  0  0  0
    7.4150  -13.9055   16.0919 O   0  0  0  0  0  0  0  0  0  0  0  0
    8.6280  -15.0278   17.8043 C   0  0  0  0  0  0  0  0  0  0  0  0
    9.2906  -14.7869   19.1289 C   0  0  0  0  0  0  0  0  0  0  0  0
    8.6857  -15.6645   20.1721 C   0  0  2  0  0  0  0  0  0  0  0  0
    7.2319  -15.6158   20.0305 N   0  0  0  0  0  0  0  0  0  0  0  0
    9.0540  -15.2039   21.5593 C   0  0  0  0  0  0  0  0  0  0  0  0
   10.2532  -15.1655   21.8465 O   0  0  0  0  0  0  0  0  0  0  0  0
    6.5508  -11.6163   28.1521 C   0  0  0  0  0  0  0  0  0  0  0  0
    6.1588  -12.0129   26.4171 S   0  0  0  0  0  0  0  0  0  0  0  0
    7.3265  -13.3158   25.8893 C   0  0  0  0  0  0  0  0  0  0  0  0
    7.1383  -13.6134   24.4414 C   0  0  0  0  0  0  0  0  0  0  0  0
    8.1779  -14.5575   23.8653 C   0  0  2  0  0  0  0  0  0  0  0  0
    8.0671  -14.8356   22.4806 N   0  0  0  0  0  0  0  0  0  0  0  0
    8.4298  -15.6702   24.7552 C   0  0  0  0  0  0  0  0  0  0  0  0
    7.4813  -16.5184   24.9010 O   0  0  0  0  0  0  0  0  0  0  0  0
    9.6274  -15.9026   25.4744 N   0  0  0  0  0  0  0  0  0  0  0  0
    9.7820  -17.0670   26.2857 C   0  0  1  0  0  0  0  0  0  0  0  0
   10.6491  -18.0969   25.5945 C   0  0  0  0  0  0  0  0  0  0  0  0
   12.0907  -17.6374   25.6299 C   0  0  0  0  0  0  0  0  0  0  0  0
   12.9407  -18.5904   24.8779 C   0  0  0  0  0  0  0  0  0  0  0  0
   12.7692  -19.8314   24.9380 O   0  0  0  0  0  0  0  0  0  0  0  0
   10.3986  -16.7702   27.5993 C   0  0  0  0  0  0  0  0  0  0  0  0
   10.8386  -15.5292   27.9926 O   0  0  0  0  0  0  0  0  0  0  0  0
   13.9625  -18.1074   24.0782 O   0  0  0  0  0  0  0  0  0  0  0  0
   10.5249  -17.7300   28.4080 O   0  0  0  0  0  0  0  0  0  0  0  0
  2  1  1  0
  3  2  2  0
  4  2  1  0
  5  4  1  0
  5  6  1  0
  6  8  1  0
  6  7  1  1
  8  9  2  0
 11 12  1  0
 11 10  1  0
 13 12  1  0
 14 13  1  1
 15 14  1  0
 15  8  1  0
 16 17  2  0
 16 14  1  0
 18 16  1  0
 19 18  1  0
 19 24  1  0
 19 20  1  6
 21 20  1  0
 22 21  1  0
 23 22  2  0
 24 25  1  0
 26 22  1  0
 27 24  2  0
M  END
$$$$
