PTL.pdb
     RDKit          3D

 23 23  0  0  1  0  0  0  0  0999 V2000
   16.9191  -14.2989  -17.8077 N   0  0  0  0  0  0  0  0  0  0  0  0
   15.9426  -14.9610  -18.6306 C   0  0  0  0  0  0  0  0  0  0  0  0
   16.3098  -14.4284  -20.0206 C   0  0  0  0  0  0  0  0  0  0  0  0
   17.8326  -14.6083  -19.9722 C   0  0  0  0  0  0  0  0  0  0  0  0
   18.1233  -14.1492  -18.5631 C   0  0  1  0  0  0  0  0  0  0  0  0
   18.5816  -12.7390  -18.6400 C   0  0  0  0  0  0  0  0  0  0  0  0
   19.6325  -12.5102  -19.2797 O   0  0  0  0  0  0  0  0  0  0  0  0
   16.6835   -9.5459  -19.8285 C   0  0  0  0  0  0  0  0  0  0  0  0
   17.2835   -9.3155  -18.4798 C   0  0  1  0  0  0  0  0  0  0  0  0
   16.2720   -9.4673  -17.5279 O   0  0  0  0  0  0  0  0  0  0  0  0
   18.3587  -10.3083  -18.1194 C   0  0  2  0  0  0  0  0  0  0  0  0
   17.9136  -11.6576  -18.0446 N   0  0  0  0  0  0  0  0  0  0  0  0
   18.9639   -9.8461  -16.8433 C   0  0  0  0  0  0  0  0  0  0  0  0
   18.4001  -10.2395  -15.7915 O   0  0  0  0  0  0  0  0  0  0  0  0
   23.9541  -10.1080  -13.9237 C   0  0  0  0  0  0  0  0  0  0  0  0
   22.6994   -9.3330  -14.0350 C   0  0  2  0  0  0  0  0  0  0  0  0
   21.7905   -9.6747  -12.8399 C   0  0  0  0  0  0  0  0  0  0  0  0
   21.8781   -9.4404  -15.2480 C   0  0  0  0  0  0  0  0  0  0  0  0
   20.6936   -8.5970  -15.4660 C   0  0  2  0  0  0  0  0  0  0  0  0
   20.0959   -9.0201  -16.7728 N   0  0  0  0  0  0  0  0  0  0  0  0
   20.8251   -7.1424  -15.4564 C   0  0  0  0  0  0  0  0  0  0  0  0
   20.6010   -6.3656  -14.3044 O   0  0  0  0  0  0  0  0  0  0  0  0
   21.1451   -6.5065  -16.4709 O   0  0  0  0  0  0  0  0  0  0  0  0
  1  2  1  0
  2  3  1  0
  4  3  1  0
  5  1  1  0
  5  4  1  0
  5  6  1  6
  7  6  2  0
  9  8  1  6
  9 11  1  0
 10  9  1  0
 11 13  1  0
 11 12  1  1
 12  6  1  0
 13 20  1  0
 14 13  2  0
 16 15  1  6
 16 17  1  0
 18 16  1  0
 19 18  1  6
 19 21  1  0
 20 19  1  0
 21 23  2  0
 21 22  1  0
M  END
$$$$
