PTL.pdb
     RDKit          3D

 23 23  0  0  1  0  0  0  0  0999 V2000
   27.3828  -20.3624  -15.2872 N   0  0  0  0  0  0  0  0  0  0  0  0
   27.3598  -19.6859  -16.5564 C   0  0  0  0  0  0  0  0  0  0  0  0
   27.2621  -18.2210  -16.1148 C   0  0  0  0  0  0  0  0  0  0  0  0
   28.3355  -18.2093  -15.0188 C   0  0  0  0  0  0  0  0  0  0  0  0
   28.0565  -19.5296  -14.3408 C   0  0  1  0  0  0  0  0  0  0  0  0
   27.2347  -19.2470  -13.1370 C   0  0  0  0  0  0  0  0  0  0  0  0
   26.9892  -18.0478  -12.8772 O   0  0  0  0  0  0  0  0  0  0  0  0
   23.7160  -19.9260  -12.4893 C   0  0  0  0  0  0  0  0  0  0  0  0
   24.4630  -20.5094  -11.3345 C   0  0  1  0  0  0  0  0  0  0  0  0
   24.5979  -21.8818  -11.5592 O   0  0  0  0  0  0  0  0  0  0  0  0
   25.8599  -19.9645  -11.1814 C   0  0  2  0  0  0  0  0  0  0  0  0
   26.7212  -20.2340  -12.2812 N   0  0  0  0  0  0  0  0  0  0  0  0
   26.3963  -20.5024   -9.9042 C   0  0  0  0  0  0  0  0  0  0  0  0
   27.1272  -21.5202   -9.9985 O   0  0  0  0  0  0  0  0  0  0  0  0
   28.2875  -18.5865   -4.4593 C   0  0  0  0  0  0  0  0  0  0  0  0
   27.9186  -19.7364   -5.3130 C   0  0  2  0  0  0  0  0  0  0  0  0
   29.1538  -20.6352   -5.5060 C   0  0  0  0  0  0  0  0  0  0  0  0
   27.3401  -19.5044   -6.6430 C   0  0  0  0  0  0  0  0  0  0  0  0
   26.6192  -20.5564   -7.3751 C   0  0  2  0  0  0  0  0  0  0  0  0
   26.1275  -19.9382   -8.6479 N   0  0  0  0  0  0  0  0  0  0  0  0
   25.5115  -21.2598   -6.7337 C   0  0  0  0  0  0  0  0  0  0  0  0
   25.7024  -22.2096   -5.7128 O   0  0  0  0  0  0  0  0  0  0  0  0
   24.3320  -21.0566   -7.0553 O   0  0  0  0  0  0  0  0  0  0  0  0
  1  2  1  0
  2  3  1  0
  4  3  1  0
  5  1  1  0
  5  4  1  0
  5  6  1  1
  7  6  2  0
  9  8  1  6
  9 11  1  0
 10  9  1  0
 11 13  1  0
 11 12  1  6
 12  6  1  0
 13 20  1  0
 14 13  2  0
 16 15  1  6
 16 17  1  0
 18 16  1  0
 19 18  1  1
 19 21  1  0
 20 19  1  0
 21 23  2  0
 21 22  1  0
M  END
$$$$
