PTL.pdb
     RDKit          3D

 23 23  0  0  1  0  0  0  0  0999 V2000
   26.6851  -20.1237  -15.6327 N   0  0  0  0  0  0  0  0  0  0  0  0
   27.3885  -19.3638  -16.6311 C   0  0  0  0  0  0  0  0  0  0  0  0
   28.2498  -18.4441  -15.7577 C   0  0  0  0  0  0  0  0  0  0  0  0
   28.7857  -19.4708  -14.7516 C   0  0  0  0  0  0  0  0  0  0  0  0
   27.5431  -20.2919  -14.5019 C   0  0  1  0  0  0  0  0  0  0  0  0
   26.9325  -19.8029  -13.2399 C   0  0  0  0  0  0  0  0  0  0  0  0
   26.7652  -18.5683  -13.1230 O   0  0  0  0  0  0  0  0  0  0  0  0
   23.5726  -20.0199  -12.1282 C   0  0  0  0  0  0  0  0  0  0  0  0
   24.3746  -20.5764  -10.9972 C   0  0  1  0  0  0  0  0  0  0  0  0
   24.3458  -21.9699  -11.0948 O   0  0  0  0  0  0  0  0  0  0  0  0
   25.8277  -20.1778  -11.0336 C   0  0  2  0  0  0  0  0  0  0  0  0
   26.5352  -20.6337  -12.1806 N   0  0  0  0  0  0  0  0  0  0  0  0
   26.4402  -20.6603   -9.7686 C   0  0  0  0  0  0  0  0  0  0  0  0
   27.0730  -21.7435   -9.8406 O   0  0  0  0  0  0  0  0  0  0  0  0
   28.1986  -20.4917   -4.3427 C   0  0  0  0  0  0  0  0  0  0  0  0
   28.6962  -19.8883   -5.5979 C   0  0  2  0  0  0  0  0  0  0  0  0
   29.4750  -18.6029   -5.2628 C   0  0  0  0  0  0  0  0  0  0  0  0
   27.7532  -19.5550   -6.6736 C   0  0  0  0  0  0  0  0  0  0  0  0
   26.8575  -20.5597   -7.2656 C   0  0  2  0  0  0  0  0  0  0  0  0
   26.3419  -19.9782   -8.5463 N   0  0  0  0  0  0  0  0  0  0  0  0
   25.7296  -21.0733   -6.4930 C   0  0  0  0  0  0  0  0  0  0  0  0
   25.8690  -22.0819   -5.5213 O   0  0  0  0  0  0  0  0  0  0  0  0
   24.5774  -20.6450   -6.6511 O   0  0  0  0  0  0  0  0  0  0  0  0
  1  2  1  0
  2  3  1  0
  4  3  1  0
  5  1  1  0
  5  4  1  0
  5  6  1  1
  7  6  2  0
  9  8  1  6
  9 11  1  0
 10  9  1  0
 11 13  1  0
 11 12  1  6
 12  6  1  0
 13 20  1  0
 14 13  2  0
 16 15  1  1
 16 17  1  0
 18 16  1  0
 19 18  1  1
 19 21  1  0
 20 19  1  0
 21 23  2  0
 21 22  1  0
M  END
$$$$
