PTL.pdb
     RDKit          3D

 23 23  0  0  1  0  0  0  0  0999 V2000
   19.6547  -12.6309  -19.5502 N   0  0  0  0  0  0  0  0  0  0  0  0
   19.0453  -13.3927  -20.6073 C   0  0  0  0  0  0  0  0  0  0  0  0
   19.1894  -12.4311  -21.7927 C   0  0  0  0  0  0  0  0  0  0  0  0
   20.6531  -12.0105  -21.6079 C   0  0  0  0  0  0  0  0  0  0  0  0
   20.7078  -11.8416  -20.1081 C   0  0  1  0  0  0  0  0  0  0  0  0
   20.5560  -10.3935  -19.8175 C   0  0  0  0  0  0  0  0  0  0  0  0
   21.4212   -9.6196  -20.2849 O   0  0  0  0  0  0  0  0  0  0  0  0
   17.7005   -8.1980  -20.8377 C   0  0  0  0  0  0  0  0  0  0  0  0
   17.9330   -7.9798  -19.3781 C   0  0  1  0  0  0  0  0  0  0  0  0
   16.9873   -8.7307  -18.6754 O   0  0  0  0  0  0  0  0  0  0  0  0
   19.2850   -8.4490  -18.9051 C   0  0  2  0  0  0  0  0  0  0  0  0
   19.5106   -9.8453  -19.0579 N   0  0  0  0  0  0  0  0  0  0  0  0
   19.4252   -8.0097  -17.4924 C   0  0  0  0  0  0  0  0  0  0  0  0
   19.0780   -8.8435  -16.6188 O   0  0  0  0  0  0  0  0  0  0  0  0
   22.7641   -4.1750  -14.1373 C   0  0  0  0  0  0  0  0  0  0  0  0
   21.7401   -5.2419  -14.1569 C   0  0  2  0  0  0  0  0  0  0  0  0
   22.1895   -6.3862  -13.2299 C   0  0  0  0  0  0  0  0  0  0  0  0
   21.3414   -5.8499  -15.4331 C   0  0  0  0  0  0  0  0  0  0  0  0
   19.9685   -6.3144  -15.6813 C   0  0  2  0  0  0  0  0  0  0  0  0
   19.9113   -6.7491  -17.1138 N   0  0  0  0  0  0  0  0  0  0  0  0
   18.8407   -5.4261  -15.4127 C   0  0  0  0  0  0  0  0  0  0  0  0
   18.4221   -4.4327  -16.3175 O   0  0  0  0  0  0  0  0  0  0  0  0
   18.1839   -5.4993  -14.3642 O   0  0  0  0  0  0  0  0  0  0  0  0
  1  2  1  0
  2  3  1  0
  4  3  1  0
  5  1  1  0
  5  4  1  0
  5  6  1  6
  7  6  2  0
  9  8  1  6
  9 11  1  0
 10  9  1  0
 11 13  1  0
 11 12  1  1
 12  6  1  0
 13 20  1  0
 14 13  2  0
 16 15  1  6
 16 17  1  0
 18 16  1  0
 19 18  1  6
 19 21  1  0
 20 19  1  0
 21 23  2  0
 21 22  1  0
M  END
$$$$
