PTL.pdb
     RDKit          3D

 23 23  0  0  1  0  0  0  0  0999 V2000
   26.0482  -18.0577  -16.3481 N   0  0  0  0  0  0  0  0  0  0  0  0
   26.0350  -16.7314  -16.9047 C   0  0  0  0  0  0  0  0  0  0  0  0
   25.9483  -15.8738  -15.6368 C   0  0  0  0  0  0  0  0  0  0  0  0
   27.0183  -16.5663  -14.7828 C   0  0  0  0  0  0  0  0  0  0  0  0
   26.7259  -18.0157  -15.0903 C   0  0  1  0  0  0  0  0  0  0  0  0
   25.9027  -18.5499  -13.9762 C   0  0  0  0  0  0  0  0  0  0  0  0
   24.6699  -18.3395  -14.0202 O   0  0  0  0  0  0  0  0  0  0  0  0
   24.6871  -21.4881  -13.9593 C   0  0  0  0  0  0  0  0  0  0  0  0
   25.4161  -21.5088  -12.6554 C   0  0  1  0  0  0  0  0  0  0  0  0
   26.6814  -22.0575  -12.8791 O   0  0  0  0  0  0  0  0  0  0  0  0
   25.6445  -20.1391  -12.0692 C   0  0  2  0  0  0  0  0  0  0  0  0
   26.4186  -19.2698  -12.8872 N   0  0  0  0  0  0  0  0  0  0  0  0
   26.2545  -20.3386  -10.7289 C   0  0  0  0  0  0  0  0  0  0  0  0
   27.5075  -20.2597  -10.6763 O   0  0  0  0  0  0  0  0  0  0  0  0
   27.2711  -19.9798   -5.3940 C   0  0  0  0  0  0  0  0  0  0  0  0
   27.7368  -19.4907   -6.7097 C   0  0  2  0  0  0  0  0  0  0  0  0
   28.1571  -18.0154   -6.5769 C   0  0  0  0  0  0  0  0  0  0  0  0
   26.8541  -19.5856   -7.8799 C   0  0  0  0  0  0  0  0  0  0  0  0
   26.1667  -20.8346   -8.2398 C   0  0  2  0  0  0  0  0  0  0  0  0
   25.5127  -20.6012   -9.5672 N   0  0  0  0  0  0  0  0  0  0  0  0
   25.1856  -21.4138   -7.3260 C   0  0  0  0  0  0  0  0  0  0  0  0
   25.5200  -22.3913   -6.3703 O   0  0  0  0  0  0  0  0  0  0  0  0
   23.9941  -21.0729   -7.3414 O   0  0  0  0  0  0  0  0  0  0  0  0
  1  2  1  0
  2  3  1  0
  4  3  1  0
  5  1  1  0
  5  4  1  0
  5  6  1  1
  7  6  2  0
  9  8  1  6
  9 11  1  0
 10  9  1  0
 11 13  1  0
 11 12  1  6
 12  6  1  0
 13 20  1  0
 14 13  2  0
 16 15  1  1
 16 17  1  0
 18 16  1  0
 19 18  1  1
 19 21  1  0
 20 19  1  0
 21 23  2  0
 21 22  1  0
M  END
$$$$
