PTL.pdb
     RDKit          3D

 23 23  0  0  1  0  0  0  0  0999 V2000
   15.0427  -13.0487  -17.1130 N   0  0  0  0  0  0  0  0  0  0  0  0
   13.9310  -13.4242  -17.9449 C   0  0  0  0  0  0  0  0  0  0  0  0
   14.4423  -13.0174  -19.3319 C   0  0  0  0  0  0  0  0  0  0  0  0
   15.8584  -13.6038  -19.2676 C   0  0  0  0  0  0  0  0  0  0  0  0
   16.2494  -13.2349  -17.8563 C   0  0  1  0  0  0  0  0  0  0  0  0
   17.0742  -12.0025  -17.9305 C   0  0  0  0  0  0  0  0  0  0  0  0
   18.1347  -12.0596  -18.5923 O   0  0  0  0  0  0  0  0  0  0  0  0
   15.7329   -8.4004  -18.7573 C   0  0  0  0  0  0  0  0  0  0  0  0
   16.6792   -8.3431  -17.6026 C   0  0  1  0  0  0  0  0  0  0  0  0
   15.9243   -8.2071  -16.4348 O   0  0  0  0  0  0  0  0  0  0  0  0
   17.5021   -9.5944  -17.4334 C   0  0  2  0  0  0  0  0  0  0  0  0
   16.7393  -10.7890  -17.3098 N   0  0  0  0  0  0  0  0  0  0  0  0
   18.3904   -9.3728  -16.2629 C   0  0  0  0  0  0  0  0  0  0  0  0
   17.9815   -9.8299  -15.1662 O   0  0  0  0  0  0  0  0  0  0  0  0
   22.9754   -8.9719  -13.2840 C   0  0  0  0  0  0  0  0  0  0  0  0
   22.1673  -10.0550  -13.8847 C   0  0  2  0  0  0  0  0  0  0  0  0
   23.0986  -11.2154  -14.2814 C   0  0  0  0  0  0  0  0  0  0  0  0
   21.3106   -9.7720  -15.0437 C   0  0  0  0  0  0  0  0  0  0  0  0
   20.5121   -8.5412  -15.1422 C   0  0  2  0  0  0  0  0  0  0  0  0
   19.6192   -8.6993  -16.3347 N   0  0  0  0  0  0  0  0  0  0  0  0
   21.1809   -7.2453  -15.2223 C   0  0  0  0  0  0  0  0  0  0  0  0
   21.5774   -6.6676  -16.4429 O   0  0  0  0  0  0  0  0  0  0  0  0
   21.4375   -6.5764  -14.2110 O   0  0  0  0  0  0  0  0  0  0  0  0
  1  2  1  0
  2  3  1  0
  4  3  1  0
  5  1  1  0
  5  4  1  0
  5  6  1  6
  7  6  2  0
  9  8  1  6
  9 11  1  0
 10  9  1  0
 11 13  1  0
 11 12  1  1
 12  6  1  0
 13 20  1  0
 14 13  2  0
 16 15  1  6
 16 17  1  0
 18 16  1  0
 19 18  1  6
 19 21  1  0
 20 19  1  0
 21 23  2  0
 21 22  1  0
M  END
$$$$
