PTL.pdb
     RDKit          3D

 23 23  0  0  1  0  0  0  0  0999 V2000
   29.3505  -21.0099  -18.3377 N   0  0  0  0  0  0  0  0  0  0  0  0
   30.2930  -22.0687  -18.5819 C   0  0  0  0  0  0  0  0  0  0  0  0
   30.1203  -22.9220  -17.3199 C   0  0  0  0  0  0  0  0  0  0  0  0
   28.5886  -22.9722  -17.2495 C   0  0  0  0  0  0  0  0  0  0  0  0
   28.2460  -21.5450  -17.6050 C   0  0  1  0  0  0  0  0  0  0  0  0
   27.9930  -20.8183  -16.3352 C   0  0  0  0  0  0  0  0  0  0  0  0
   28.9903  -20.4404  -15.6806 O   0  0  0  0  0  0  0  0  0  0  0  0
   26.9144  -17.4680  -15.6725 C   0  0  0  0  0  0  0  0  0  0  0  0
   25.9368  -18.3562  -14.9744 C   0  0  1  0  0  0  0  0  0  0  0  0
   24.8397  -18.5366  -15.8206 O   0  0  0  0  0  0  0  0  0  0  0  0
   26.4756  -19.7322  -14.6778 C   0  0  2  0  0  0  0  0  0  0  0  0
   26.7152  -20.5320  -15.8298 N   0  0  0  0  0  0  0  0  0  0  0  0
   25.5229  -20.3760  -13.7365 C   0  0  0  0  0  0  0  0  0  0  0  0
   24.8613  -21.3406  -14.1956 O   0  0  0  0  0  0  0  0  0  0  0  0
   26.2421  -20.3319   -8.1461 C   0  0  0  0  0  0  0  0  0  0  0  0
   25.5267  -20.9785   -9.2674 C   0  0  2  0  0  0  0  0  0  0  0  0
   26.5506  -21.6827  -10.1768 C   0  0  0  0  0  0  0  0  0  0  0  0
   24.6538  -20.1787  -10.1367 C   0  0  0  0  0  0  0  0  0  0  0  0
   24.3247  -20.5948  -11.5081 C   0  0  2  0  0  0  0  0  0  0  0  0
   25.3425  -19.9631  -12.4077 N   0  0  0  0  0  0  0  0  0  0  0  0
   22.9925  -20.3343  -12.0470 C   0  0  0  0  0  0  0  0  0  0  0  0
   21.8985  -21.1897  -11.8184 O   0  0  0  0  0  0  0  0  0  0  0  0
   22.7495  -19.3363  -12.7405 O   0  0  0  0  0  0  0  0  0  0  0  0
  1  2  1  0
  2  3  1  0
  4  3  1  0
  5  1  1  0
  5  4  1  0
  5  6  1  1
  7  6  2  0
  9  8  1  6
  9 11  1  0
 10  9  1  0
 11 13  1  0
 11 12  1  6
 12  6  1  0
 13 20  1  0
 14 13  2  0
 16 15  1  1
 16 17  1  0
 18 16  1  0
 19 18  1  1
 19 21  1  0
 20 19  1  0
 21 23  2  0
 21 22  1  0
M  END
$$$$
