PTL.pdb
     RDKit          3D

 23 23  0  0  1  0  0  0  0  0999 V2000
   18.1743  -13.7994  -16.9037 N   0  0  0  0  0  0  0  0  0  0  0  0
   17.2743  -14.7096  -17.5601 C   0  0  0  0  0  0  0  0  0  0  0  0
   17.0783  -14.0154  -18.9130 C   0  0  0  0  0  0  0  0  0  0  0  0
   18.5373  -13.6741  -19.2420 C   0  0  0  0  0  0  0  0  0  0  0  0
   19.0285  -13.2152  -17.8896 C   0  0  1  0  0  0  0  0  0  0  0  0
   18.9853  -11.7311  -17.8804 C   0  0  0  0  0  0  0  0  0  0  0  0
   19.7736  -11.1284  -18.6427 O   0  0  0  0  0  0  0  0  0  0  0  0
   16.0116   -9.3977  -18.5846 C   0  0  0  0  0  0  0  0  0  0  0  0
   16.6473   -9.0082  -17.2899 C   0  0  1  0  0  0  0  0  0  0  0  0
   15.8810   -9.5499  -16.2548 O   0  0  0  0  0  0  0  0  0  0  0  0
   18.0425   -9.5508  -17.1147 C   0  0  2  0  0  0  0  0  0  0  0  0
   18.1218  -10.9708  -17.0764 N   0  0  0  0  0  0  0  0  0  0  0  0
   18.5988   -8.9248  -15.8872 C   0  0  0  0  0  0  0  0  0  0  0  0
   18.4033   -9.5478  -14.8136 O   0  0  0  0  0  0  0  0  0  0  0  0
   23.2688   -7.3612  -13.5667 C   0  0  0  0  0  0  0  0  0  0  0  0
   22.1772   -8.3562  -13.4927 C   0  0  2  0  0  0  0  0  0  0  0  0
   22.7887   -9.7660  -13.3949 C   0  0  0  0  0  0  0  0  0  0  0  0
   21.1546   -8.4001  -14.5461 C   0  0  0  0  0  0  0  0  0  0  0  0
   20.1887   -7.3089  -14.7424 C   0  0  2  0  0  0  0  0  0  0  0  0
   19.3059   -7.7128  -15.8833 N   0  0  0  0  0  0  0  0  0  0  0  0
   20.6662   -5.9483  -14.9743 C   0  0  0  0  0  0  0  0  0  0  0  0
   20.8300   -5.4087  -16.2638 O   0  0  0  0  0  0  0  0  0  0  0  0
   20.9552   -5.1868  -14.0402 O   0  0  0  0  0  0  0  0  0  0  0  0
  1  2  1  0
  2  3  1  0
  4  3  1  0
  5  1  1  0
  5  4  1  0
  5  6  1  6
  7  6  2  0
  9  8  1  6
  9 11  1  0
 10  9  1  0
 11 13  1  0
 11 12  1  1
 12  6  1  0
 13 20  1  0
 14 13  2  0
 16 15  1  6
 16 17  1  0
 18 16  1  0
 19 18  1  6
 19 21  1  0
 20 19  1  0
 21 23  2  0
 21 22  1  0
M  END
$$$$
