PTL.pdb
     RDKit          3D

 23 23  0  0  1  0  0  0  0  0999 V2000
   15.0619  -11.5528  -14.0415 N   0  0  0  0  0  0  0  0  0  0  0  0
   15.6924  -12.4697  -14.9530 C   0  0  0  0  0  0  0  0  0  0  0  0
   16.8093  -13.0462  -14.0752 C   0  0  0  0  0  0  0  0  0  0  0  0
   16.0117  -13.3311  -12.7961 C   0  0  0  0  0  0  0  0  0  0  0  0
   15.1533  -12.0909  -12.7204 C   0  0  1  0  0  0  0  0  0  0  0  0
   15.8017  -11.1584  -11.7641 C   0  0  0  0  0  0  0  0  0  0  0  0
   16.0066  -11.5768  -10.6026 O   0  0  0  0  0  0  0  0  0  0  0  0
   19.1241   -9.1071  -12.1469 C   0  0  0  0  0  0  0  0  0  0  0  0
   18.0043   -8.2155  -11.7189 C   0  0  1  0  0  0  0  0  0  0  0  0
   17.5446   -7.5313  -12.8470 O   0  0  0  0  0  0  0  0  0  0  0  0
   16.8186   -8.9603  -11.1612 C   0  0  2  0  0  0  0  0  0  0  0  0
   16.1952   -9.8489  -12.0810 N   0  0  0  0  0  0  0  0  0  0  0  0
   15.8732   -7.9395  -10.6393 C   0  0  0  0  0  0  0  0  0  0  0  0
   14.9368   -7.6104  -11.4099 O   0  0  0  0  0  0  0  0  0  0  0  0
   12.6012   -5.6461   -6.8854 C   0  0  0  0  0  0  0  0  0  0  0  0
   14.0528   -5.6256   -6.6030 C   0  0  2  0  0  0  0  0  0  0  0  0
   14.5552   -4.1712   -6.6618 C   0  0  0  0  0  0  0  0  0  0  0  0
   14.9685   -6.4332   -7.4195 C   0  0  0  0  0  0  0  0  0  0  0  0
   15.0188   -6.3149   -8.8843 C   0  0  2  0  0  0  0  0  0  0  0  0
   15.9834   -7.3535   -9.3692 N   0  0  0  0  0  0  0  0  0  0  0  0
   15.3567   -5.0339   -9.4991 C   0  0  0  0  0  0  0  0  0  0  0  0
   16.6845   -4.6120   -9.6982 O   0  0  0  0  0  0  0  0  0  0  0  0
   14.4850   -4.2411   -9.8836 O   0  0  0  0  0  0  0  0  0  0  0  0
  1  2  1  0
  2  3  1  0
  4  3  1  0
  5  1  1  0
  5  4  1  0
  5  6  1  1
  7  6  2  0
  9  8  1  6
  9 11  1  0
 10  9  1  0
 11 13  1  0
 11 12  1  6
 12  6  1  0
 13 20  1  0
 14 13  2  0
 16 15  1  6
 16 17  1  0
 18 16  1  0
 19 18  1  1
 19 21  1  0
 20 19  1  0
 21 23  2  0
 21 22  1  0
M  END
$$$$
