PTL.pdb
     RDKit          3D

 23 23  0  0  1  0  0  0  0  0999 V2000
   20.4305  -13.6699  -17.5593 N   0  0  0  0  0  0  0  0  0  0  0  0
   19.1578  -14.3348  -17.6446 C   0  0  0  0  0  0  0  0  0  0  0  0
   18.2168  -13.2542  -17.0992 C   0  0  0  0  0  0  0  0  0  0  0  0
   18.7403  -12.0395  -17.8763 C   0  0  0  0  0  0  0  0  0  0  0  0
   20.2298  -12.2736  -17.7898 C   0  0  1  0  0  0  0  0  0  0  0  0
   20.7499  -11.4285  -16.6853 C   0  0  0  0  0  0  0  0  0  0  0  0
   20.3752  -11.7059  -15.5240 O   0  0  0  0  0  0  0  0  0  0  0  0
   24.1672  -11.0317  -15.3843 C   0  0  0  0  0  0  0  0  0  0  0  0
   23.6629   -9.6527  -15.6600 C   0  0  1  0  0  0  0  0  0  0  0  0
   24.1925   -9.2382  -16.8846 O   0  0  0  0  0  0  0  0  0  0  0  0
   22.1639   -9.5738  -15.7967 C   0  0  2  0  0  0  0  0  0  0  0  0
   21.6281  -10.3481  -16.8632 N   0  0  0  0  0  0  0  0  0  0  0  0
   21.8160   -8.1343  -15.9191 C   0  0  0  0  0  0  0  0  0  0  0  0
   21.2323   -7.7965  -16.9793 O   0  0  0  0  0  0  0  0  0  0  0  0
   17.9061   -4.6719  -15.3233 C   0  0  0  0  0  0  0  0  0  0  0  0
   19.3761   -4.5989  -15.4681 C   0  0  2  0  0  0  0  0  0  0  0  0
   19.7158   -3.9935  -16.8425 C   0  0  0  0  0  0  0  0  0  0  0  0
   20.1874   -5.8141  -15.3179 C   0  0  0  0  0  0  0  0  0  0  0  0
   21.6298   -5.7600  -15.0374 C   0  0  2  0  0  0  0  0  0  0  0  0
   22.1037   -7.1774  -14.9341 N   0  0  0  0  0  0  0  0  0  0  0  0
   22.1180   -5.0140  -13.8806 C   0  0  0  0  0  0  0  0  0  0  0  0
   22.4959   -3.6602  -13.9524 O   0  0  0  0  0  0  0  0  0  0  0  0
   22.2263   -5.5362  -12.7619 O   0  0  0  0  0  0  0  0  0  0  0  0
  1  2  1  0
  2  3  1  0
  4  3  1  0
  5  1  1  0
  5  4  1  0
  5  6  1  1
  7  6  2  0
  9  8  1  6
  9 11  1  0
 10  9  1  0
 11 13  1  0
 11 12  1  6
 12  6  1  0
 13 20  1  0
 14 13  2  0
 16 15  1  6
 16 17  1  0
 18 16  1  0
 19 18  1  1
 19 21  1  0
 20 19  1  0
 21 23  2  0
 21 22  1  0
M  END
$$$$
