PTL.pdb
     RDKit          3D

 23 23  0  0  1  0  0  0  0  0999 V2000
   17.8374  -14.0309  -18.3069 N   0  0  0  0  0  0  0  0  0  0  0  0
   17.1834  -14.6266  -19.4412 C   0  0  0  0  0  0  0  0  0  0  0  0
   18.1205  -14.2108  -20.5812 C   0  0  0  0  0  0  0  0  0  0  0  0
   19.4727  -14.5506  -19.9412 C   0  0  0  0  0  0  0  0  0  0  0  0
   19.2485  -14.0517  -18.5336 C   0  0  1  0  0  0  0  0  0  0  0  0
   19.8660  -12.7050  -18.4349 C   0  0  0  0  0  0  0  0  0  0  0  0
   21.1074  -12.6303  -18.5739 O   0  0  0  0  0  0  0  0  0  0  0  0
   19.0822   -9.4855  -20.4741 C   0  0  0  0  0  0  0  0  0  0  0  0
   19.0282   -9.1985  -19.0089 C   0  0  1  0  0  0  0  0  0  0  0  0
   17.6878   -9.2218  -18.6155 O   0  0  0  0  0  0  0  0  0  0  0  0
   19.7367  -10.2272  -18.1654 C   0  0  2  0  0  0  0  0  0  0  0  0
   19.1484  -11.5222  -18.1979 N   0  0  0  0  0  0  0  0  0  0  0  0
   19.8100   -9.6792  -16.7861 C   0  0  0  0  0  0  0  0  0  0  0  0
   18.9727  -10.1341  -15.9670 O   0  0  0  0  0  0  0  0  0  0  0  0
   23.1533   -9.7376  -12.2269 C   0  0  0  0  0  0  0  0  0  0  0  0
   22.0731   -8.9338  -12.8386 C   0  0  2  0  0  0  0  0  0  0  0  0
   20.7831   -9.1194  -12.0185 C   0  0  0  0  0  0  0  0  0  0  0  0
   21.7211   -9.1349  -14.2504 C   0  0  0  0  0  0  0  0  0  0  0  0
   20.8192   -8.2216  -14.9678 C   0  0  2  0  0  0  0  0  0  0  0  0
   20.7422   -8.7117  -16.3813 N   0  0  0  0  0  0  0  0  0  0  0  0
   21.0959   -6.7876  -14.9802 C   0  0  0  0  0  0  0  0  0  0  0  0
   20.5201   -5.8934  -14.0584 O   0  0  0  0  0  0  0  0  0  0  0  0
   21.8606   -6.2747  -15.8098 O   0  0  0  0  0  0  0  0  0  0  0  0
  1  2  1  0
  2  3  1  0
  4  3  1  0
  5  1  1  0
  5  4  1  0
  5  6  1  6
  7  6  2  0
  9  8  1  6
  9 11  1  0
 10  9  1  0
 11 13  1  0
 11 12  1  1
 12  6  1  0
 13 20  1  0
 14 13  2  0
 16 15  1  1
 16 17  1  0
 18 16  1  0
 19 18  1  1
 19 21  1  0
 20 19  1  0
 21 23  2  0
 21 22  1  0
M  END
$$$$
