PTL.pdb
     RDKit          3D

 23 23  0  0  1  0  0  0  0  0999 V2000
   37.1992   -9.0953  -15.0715 N   0  0  0  0  0  0  0  0  0  0  0  0
   37.7608   -8.0088  -14.3143 C   0  0  0  0  0  0  0  0  0  0  0  0
   36.6313   -6.9748  -14.3889 C   0  0  0  0  0  0  0  0  0  0  0  0
   35.4333   -7.8768  -14.0652 C   0  0  0  0  0  0  0  0  0  0  0  0
   35.7842   -9.1061  -14.8693 C   0  0  1  0  0  0  0  0  0  0  0  0
   35.0218   -9.0383  -16.1416 C   0  0  0  0  0  0  0  0  0  0  0  0
   35.4844   -8.3139  -17.0511 O   0  0  0  0  0  0  0  0  0  0  0  0
   34.8251  -11.6248  -18.5257 C   0  0  0  0  0  0  0  0  0  0  0  0
   33.4009  -11.2460  -18.2802 C   0  0  1  0  0  0  0  0  0  0  0  0
   32.8672  -12.1534  -17.3616 O   0  0  0  0  0  0  0  0  0  0  0  0
   33.2364   -9.8775  -17.6704 C   0  0  2  0  0  0  0  0  0  0  0  0
   33.8253   -9.7313  -16.3836 N   0  0  0  0  0  0  0  0  0  0  0  0
   31.7801   -9.5822  -17.6574 C   0  0  0  0  0  0  0  0  0  0  0  0
   31.2021   -9.7078  -16.5487 O   0  0  0  0  0  0  0  0  0  0  0  0
   27.5602   -6.9418  -21.3916 C   0  0  0  0  0  0  0  0  0  0  0  0
   27.9876   -7.3368  -20.0320 C   0  0  2  0  0  0  0  0  0  0  0  0
   27.8788   -6.1178  -19.0976 C   0  0  0  0  0  0  0  0  0  0  0  0
   29.3182   -7.9235  -19.8249 C   0  0  0  0  0  0  0  0  0  0  0  0
   29.5929   -8.8693  -18.7330 C   0  0  2  0  0  0  0  0  0  0  0  0
   31.0562   -9.1843  -18.7916 N   0  0  0  0  0  0  0  0  0  0  0  0
   28.8441  -10.1205  -18.6494 C   0  0  0  0  0  0  0  0  0  0  0  0
   27.6752  -10.2577  -17.8776 O   0  0  0  0  0  0  0  0  0  0  0  0
   29.1993  -11.1391  -19.2596 O   0  0  0  0  0  0  0  0  0  0  0  0
  1  2  1  0
  2  3  1  0
  4  3  1  0
  5  1  1  0
  5  4  1  0
  5  6  1  6
  7  6  2  0
  9  8  1  1
  9 11  1  0
 10  9  1  0
 11 13  1  0
 11 12  1  1
 12  6  1  0
 13 20  1  0
 14 13  2  0
 16 15  1  6
 16 17  1  0
 18 16  1  0
 19 18  1  6
 19 21  1  0
 20 19  1  0
 21 23  2  0
 21 22  1  0
M  END
$$$$
