PTL.pdb
     RDKit          3D

 23 23  0  0  1  0  0  0  0  0999 V2000
   27.7182  -23.0816  -16.5680 N   0  0  0  0  0  0  0  0  0  0  0  0
   27.3803  -23.0166  -17.9647 C   0  0  0  0  0  0  0  0  0  0  0  0
   27.6974  -21.5507  -18.2829 C   0  0  0  0  0  0  0  0  0  0  0  0
   29.0659  -21.4283  -17.6004 C   0  0  0  0  0  0  0  0  0  0  0  0
   28.8100  -22.1922  -16.3230 C   0  0  1  0  0  0  0  0  0  0  0  0
   28.5134  -21.1976  -15.2613 C   0  0  0  0  0  0  0  0  0  0  0  0
   29.3882  -20.3357  -15.0205 O   0  0  0  0  0  0  0  0  0  0  0  0
   26.9878  -18.1673  -15.0509 C   0  0  0  0  0  0  0  0  0  0  0  0
   26.2330  -19.0020  -14.0681 C   0  0  1  0  0  0  0  0  0  0  0  0
   25.1195  -19.5348  -14.7226 O   0  0  0  0  0  0  0  0  0  0  0  0
   27.0193  -20.1758  -13.5430 C   0  0  2  0  0  0  0  0  0  0  0  0
   27.3226  -21.1657  -14.5189 N   0  0  0  0  0  0  0  0  0  0  0  0
   26.2520  -20.7331  -12.3989 C   0  0  0  0  0  0  0  0  0  0  0  0
   25.6939  -21.8413  -12.5970 O   0  0  0  0  0  0  0  0  0  0  0  0
   27.6497  -21.5101   -7.8258 C   0  0  0  0  0  0  0  0  0  0  0  0
   27.1828  -20.1761   -8.2613 C   0  0  2  0  0  0  0  0  0  0  0  0
   27.3321  -19.1855   -7.0919 C   0  0  0  0  0  0  0  0  0  0  0  0
   25.8238  -20.0146   -8.7945 C   0  0  0  0  0  0  0  0  0  0  0  0
   25.3772  -20.7024  -10.0150 C   0  0  2  0  0  0  0  0  0  0  0  0
   26.1328  -20.0930  -11.1559 N   0  0  0  0  0  0  0  0  0  0  0  0
   23.9568  -20.7340  -10.3533 C   0  0  0  0  0  0  0  0  0  0  0  0
   23.0372  -21.5748   -9.6990 O   0  0  0  0  0  0  0  0  0  0  0  0
   23.4785  -20.0152  -11.2424 O   0  0  0  0  0  0  0  0  0  0  0  0
  1  2  1  0
  2  3  1  0
  4  3  1  0
  5  1  1  0
  5  4  1  0
  5  6  1  1
  7  6  2  0
  9  8  1  6
  9 11  1  0
 10  9  1  0
 11 13  1  0
 11 12  1  6
 12  6  1  0
 13 20  1  0
 14 13  2  0
 16 15  1  1
 16 17  1  0
 18 16  1  0
 19 18  1  1
 19 21  1  0
 20 19  1  0
 21 23  2  0
 21 22  1  0
M  END
$$$$
