TLK.pdb
     RDKit          3D

 25 24  0  0  1  0  0  0  0  0999 V2000
    9.8424  -15.2397   19.9540 C   0  0  0  0  0  0  0  0  0  0  0  0
    8.4239  -14.9329   20.2733 C   0  0  1  0  0  0  0  0  0  0  0  0
    7.6344  -15.1492   19.1242 O   0  0  0  0  0  0  0  0  0  0  0  0
    7.8359  -15.7386   21.3807 C   0  0  2  0  0  0  0  0  0  0  0  0
    6.4242  -15.4373   21.4599 N   0  0  0  0  0  0  0  0  0  0  0  0
    8.4444  -15.5509   22.6877 C   0  0  0  0  0  0  0  0  0  0  0  0
    9.6747  -15.8157   22.9311 O   0  0  0  0  0  0  0  0  0  0  0  0
    6.0240  -11.8484   26.3156 C   0  0  0  0  0  0  0  0  0  0  0  0
    6.9833  -12.6692   25.5377 C   0  0  1  0  0  0  0  0  0  0  0  0
    8.3522  -11.9775   25.6732 C   0  0  0  0  0  0  0  0  0  0  0  0
    7.1852  -14.0746   25.9569 C   0  0  0  0  0  0  0  0  0  0  0  0
    8.1199  -14.8957   25.1075 C   0  0  2  0  0  0  0  0  0  0  0  0
    7.6569  -15.0514   23.7609 N   0  0  0  0  0  0  0  0  0  0  0  0
    8.4464  -16.1444   25.7943 C   0  0  0  0  0  0  0  0  0  0  0  0
    7.5740  -16.9887   26.1247 O   0  0  0  0  0  0  0  0  0  0  0  0
    9.7927  -16.4622   26.1251 N   0  0  0  0  0  0  0  0  0  0  0  0
   10.1741  -17.7698   26.6888 C   0  0  1  0  0  0  0  0  0  0  0  0
   11.0525  -18.5184   25.7485 C   0  0  0  0  0  0  0  0  0  0  0  0
   11.5588  -19.8357   26.2729 C   0  0  0  0  0  0  0  0  0  0  0  0
   12.5583  -20.4245   25.2759 C   0  0  0  0  0  0  0  0  0  0  0  0
   12.9926  -21.7679   25.8379 C   0  0  0  0  0  0  0  0  0  0  0  0
   14.0708  -22.3371   25.0538 N   0  0  0  0  0  0  0  0  0  0  0  0
   10.8659  -17.5223   27.9645 C   0  0  0  0  0  0  0  0  0  0  0  0
   11.0643  -18.4732   28.9552 O   0  0  0  0  0  0  0  0  0  0  0  0
   11.3368  -16.3574   28.2269 O   0  0  0  0  0  0  0  0  0  0  0  0
  2  1  1  6
  3  2  1  0
  4  6  1  0
  4  2  1  0
  4  5  1  1
  6  7  2  0
  9  8  1  1
  9 11  1  0
 10  9  1  0
 12 11  1  1
 13 12  1  0
 13  6  1  0
 14 15  2  0
 14 12  1  0
 16 14  1  0
 17 16  1  0
 17 18  1  6
 19 20  1  0
 19 18  1  0
 20 21  1  0
 21 22  1  0
 23 17  1  0
 23 24  1  0
 25 23  2  0
M  END
$$$$
