TLK.pdb
     RDKit          3D

 25 24  0  0  1  0  0  0  0  0999 V2000
    6.6874  -17.5153   21.9943 C   0  0  0  0  0  0  0  0  0  0  0  0
    7.6295  -16.7480   21.1386 C   0  0  1  0  0  0  0  0  0  0  0  0
    7.1632  -16.7653   19.8072 O   0  0  0  0  0  0  0  0  0  0  0  0
    7.8213  -15.3225   21.5291 C   0  0  2  0  0  0  0  0  0  0  0  0
    8.5516  -14.6581   20.4730 N   0  0  0  0  0  0  0  0  0  0  0  0
    8.4977  -15.1025   22.7970 C   0  0  0  0  0  0  0  0  0  0  0  0
    9.7731  -15.1281   22.9232 O   0  0  0  0  0  0  0  0  0  0  0  0
    5.8591  -12.0635   26.6447 C   0  0  0  0  0  0  0  0  0  0  0  0
    6.8997  -12.7305   25.8256 C   0  0  1  0  0  0  0  0  0  0  0  0
    8.1340  -11.8107   25.8631 C   0  0  0  0  0  0  0  0  0  0  0  0
    7.3651  -14.0674   26.2588 C   0  0  0  0  0  0  0  0  0  0  0  0
    8.2569  -14.8071   25.2959 C   0  0  2  0  0  0  0  0  0  0  0  0
    7.7289  -14.8453   23.9649 N   0  0  0  0  0  0  0  0  0  0  0  0
    8.6157  -16.1101   25.8534 C   0  0  0  0  0  0  0  0  0  0  0  0
    7.7743  -17.0269   26.0394 O   0  0  0  0  0  0  0  0  0  0  0  0
    9.9597  -16.4006   26.2170 N   0  0  0  0  0  0  0  0  0  0  0  0
   10.3631  -17.7182   26.7411 C   0  0  1  0  0  0  0  0  0  0  0  0
   11.5792  -18.2184   26.0433 C   0  0  0  0  0  0  0  0  0  0  0  0
   11.3299  -18.7846   24.6708 C   0  0  0  0  0  0  0  0  0  0  0  0
   12.6653  -19.1812   24.0389 C   0  0  0  0  0  0  0  0  0  0  0  0
   12.3584  -19.6293   22.6197 C   0  0  0  0  0  0  0  0  0  0  0  0
   13.5689  -20.0151   21.9217 N   0  0  0  0  0  0  0  0  0  0  0  0
   10.6138  -17.5679   28.1840 C   0  0  0  0  0  0  0  0  0  0  0  0
   10.4887  -16.3800   28.8900 O   0  0  0  0  0  0  0  0  0  0  0  0
   10.9783  -18.5804   28.8837 O   0  0  0  0  0  0  0  0  0  0  0  0
  2  1  1  1
  3  2  1  0
  4  6  1  0
  4  2  1  0
  4  5  1  6
  6  7  2  0
  9  8  1  1
  9 11  1  0
 10  9  1  0
 12 11  1  1
 13 12  1  0
 13  6  1  0
 14 15  2  0
 14 12  1  0
 16 14  1  0
 17 16  1  0
 17 18  1  6
 19 20  1  0
 19 18  1  0
 20 21  1  0
 21 22  1  0
 23 17  1  0
 23 24  1  0
 25 23  2  0
M  END
$$$$
