TLK.pdb
     RDKit          3D

 25 24  0  0  1  0  0  0  0  0999 V2000
    6.5832  -16.7086   21.0629 C   0  0  0  0  0  0  0  0  0  0  0  0
    7.3672  -15.6661   20.3508 C   0  0  1  0  0  0  0  0  0  0  0  0
    6.8552  -15.5143   19.0450 O   0  0  0  0  0  0  0  0  0  0  0  0
    7.3633  -14.3217   20.9942 C   0  0  2  0  0  0  0  0  0  0  0  0
    7.9151  -13.3695   20.0567 N   0  0  0  0  0  0  0  0  0  0  0  0
    8.0771  -14.2260   22.2571 C   0  0  0  0  0  0  0  0  0  0  0  0
    9.3559  -14.2510   22.3415 O   0  0  0  0  0  0  0  0  0  0  0  0
    5.6914  -11.7611   26.7426 C   0  0  0  0  0  0  0  0  0  0  0  0
    6.6658  -12.3068   25.7672 C   0  0  1  0  0  0  0  0  0  0  0  0
    7.9776  -11.5312   25.9875 C   0  0  0  0  0  0  0  0  0  0  0  0
    7.0109  -13.7429   25.8685 C   0  0  0  0  0  0  0  0  0  0  0  0
    7.8898  -14.2958   24.7770 C   0  0  2  0  0  0  0  0  0  0  0  0
    7.3430  -14.0980   23.4679 N   0  0  0  0  0  0  0  0  0  0  0  0
    8.2579  -15.6760   25.0882 C   0  0  0  0  0  0  0  0  0  0  0  0
    7.4445  -16.6327   25.0092 O   0  0  0  0  0  0  0  0  0  0  0  0
    9.5791  -16.0007   25.5030 N   0  0  0  0  0  0  0  0  0  0  0  0
   10.0013  -17.3894   25.7605 C   0  0  1  0  0  0  0  0  0  0  0  0
   11.1298  -17.7760   24.8700 C   0  0  0  0  0  0  0  0  0  0  0  0
   11.6822  -19.1548   25.1155 C   0  0  0  0  0  0  0  0  0  0  0  0
   12.8660  -19.3979   24.1777 C   0  0  0  0  0  0  0  0  0  0  0  0
   13.3363  -20.8205   24.4313 C   0  0  0  0  0  0  0  0  0  0  0  0
   14.4978  -21.1372   23.6240 N   0  0  0  0  0  0  0  0  0  0  0  0
   10.3976  -17.4813   27.1754 C   0  0  0  0  0  0  0  0  0  0  0  0
   10.5266  -18.6658   27.8863 O   0  0  0  0  0  0  0  0  0  0  0  0
   10.6518  -16.4155   27.8440 O   0  0  0  0  0  0  0  0  0  0  0  0
  2  1  1  1
  3  2  1  0
  4  6  1  0
  4  2  1  0
  4  5  1  6
  6  7  2  0
  9  8  1  1
  9 11  1  0
 10  9  1  0
 12 11  1  1
 13 12  1  0
 13  6  1  0
 14 15  2  0
 14 12  1  0
 16 14  1  0
 17 16  1  0
 17 18  1  6
 19 20  1  0
 19 18  1  0
 20 21  1  0
 21 22  1  0
 23 17  1  0
 23 24  1  0
 25 23  2  0
M  END
$$$$
