TLK.pdb
     RDKit          3D

 25 24  0  0  1  0  0  0  0  0999 V2000
    7.2137  -17.6490   19.9103 C   0  0  0  0  0  0  0  0  0  0  0  0
    7.6853  -17.1045   21.2101 C   0  0  1  0  0  0  0  0  0  0  0  0
    8.6661  -17.9669   21.7439 O   0  0  0  0  0  0  0  0  0  0  0  0
    8.2755  -15.7374   21.1468 C   0  0  2  0  0  0  0  0  0  0  0  0
    9.3753  -15.7619   20.2087 N   0  0  0  0  0  0  0  0  0  0  0  0
    8.7327  -15.1896   22.4135 C   0  0  0  0  0  0  0  0  0  0  0  0
    9.9591  -15.2165   22.7854 O   0  0  0  0  0  0  0  0  0  0  0  0
    8.2683  -11.6226   26.6410 C   0  0  0  0  0  0  0  0  0  0  0  0
    7.2626  -12.7083   26.5476 C   0  0  1  0  0  0  0  0  0  0  0  0
    5.9304  -12.1052   27.0296 C   0  0  0  0  0  0  0  0  0  0  0  0
    6.9965  -13.2874   25.2113 C   0  0  0  0  0  0  0  0  0  0  0  0
    8.0978  -14.1262   24.6171 C   0  0  2  0  0  0  0  0  0  0  0  0
    7.7931  -14.5914   23.2970 N   0  0  0  0  0  0  0  0  0  0  0  0
    8.4909  -15.1701   25.5622 C   0  0  0  0  0  0  0  0  0  0  0  0
    7.7203  -16.1032   25.9064 O   0  0  0  0  0  0  0  0  0  0  0  0
    9.7886  -15.1730   26.1445 N   0  0  0  0  0  0  0  0  0  0  0  0
   10.2871  -16.3072   26.9434 C   0  0  1  0  0  0  0  0  0  0  0  0
   11.4737  -16.9320   26.2971 C   0  0  0  0  0  0  0  0  0  0  0  0
   12.1466  -18.0016   27.1156 C   0  0  0  0  0  0  0  0  0  0  0  0
   11.9623  -19.3546   26.4261 C   0  0  0  0  0  0  0  0  0  0  0  0
   12.7079  -20.3765   27.2682 C   0  0  0  0  0  0  0  0  0  0  0  0
   12.4792  -21.7217   26.7788 N   0  0  0  0  0  0  0  0  0  0  0  0
   10.6298  -15.7960   28.2807 C   0  0  0  0  0  0  0  0  0  0  0  0
   10.9814  -14.4832   28.5605 O   0  0  0  0  0  0  0  0  0  0  0  0
   10.6183  -16.5835   29.2943 O   0  0  0  0  0  0  0  0  0  0  0  0
  2  1  1  6
  3  2  1  0
  4  6  1  0
  4  2  1  0
  4  5  1  6
  6  7  2  0
  9  8  1  6
  9 11  1  0
 10  9  1  0
 12 11  1  1
 13 12  1  0
 13  6  1  0
 14 15  2  0
 14 12  1  0
 16 14  1  0
 17 16  1  0
 17 18  1  6
 19 20  1  0
 19 18  1  0
 20 21  1  0
 21 22  1  0
 23 17  1  0
 23 24  1  0
 25 23  2  0
M  END
$$$$
