TLK.pdb
     RDKit          3D

 25 24  0  0  1  0  0  0  0  0999 V2000
    7.1508  -17.7829   19.8543 C   0  0  0  0  0  0  0  0  0  0  0  0
    7.4968  -17.1982   21.1759 C   0  0  1  0  0  0  0  0  0  0  0  0
    8.3681  -18.0754   21.8555 O   0  0  0  0  0  0  0  0  0  0  0  0
    8.1550  -15.8620   21.1240 C   0  0  2  0  0  0  0  0  0  0  0  0
    9.3137  -15.9610   20.2650 N   0  0  0  0  0  0  0  0  0  0  0  0
    8.5506  -15.3047   22.4071 C   0  0  0  0  0  0  0  0  0  0  0  0
    9.7513  -15.3580   22.8527 O   0  0  0  0  0  0  0  0  0  0  0  0
    7.8828  -11.5202   26.4557 C   0  0  0  0  0  0  0  0  0  0  0  0
    6.8946  -12.6203   26.3449 C   0  0  1  0  0  0  0  0  0  0  0  0
    5.5330  -12.0186   26.7385 C   0  0  0  0  0  0  0  0  0  0  0  0
    6.7042  -13.2436   25.0157 C   0  0  0  0  0  0  0  0  0  0  0  0
    7.8405  -14.0929   24.5088 C   0  0  2  0  0  0  0  0  0  0  0  0
    7.5769  -14.6661   23.2228 N   0  0  0  0  0  0  0  0  0  0  0  0
    8.2421  -15.0498   25.5387 C   0  0  0  0  0  0  0  0  0  0  0  0
    8.6180  -14.6979   26.6866 O   0  0  0  0  0  0  0  0  0  0  0  0
    8.2248  -16.4480   25.2789 N   0  0  0  0  0  0  0  0  0  0  0  0
    8.6151  -17.4399   26.2973 C   0  0  1  0  0  0  0  0  0  0  0  0
    8.0636  -18.7833   25.9700 C   0  0  0  0  0  0  0  0  0  0  0  0
    8.5049  -19.8875   26.8934 C   0  0  0  0  0  0  0  0  0  0  0  0
    7.2723  -20.5590   27.5013 C   0  0  0  0  0  0  0  0  0  0  0  0
    7.7843  -21.5995   28.4834 C   0  0  0  0  0  0  0  0  0  0  0  0
    6.6864  -22.2972   29.1230 N   0  0  0  0  0  0  0  0  0  0  0  0
   10.0860  -17.4768   26.3450 C   0  0  0  0  0  0  0  0  0  0  0  0
   10.8356  -17.7091   27.4893 O   0  0  0  0  0  0  0  0  0  0  0  0
   10.7706  -17.2847   25.2764 O   0  0  0  0  0  0  0  0  0  0  0  0
  2  1  1  6
  3  2  1  0
  4  6  1  0
  4  2  1  0
  4  5  1  6
  6  7  2  0
  9  8  1  6
  9 11  1  0
 10  9  1  0
 12 11  1  1
 13 12  1  0
 13  6  1  0
 14 15  2  0
 14 12  1  0
 16 14  1  0
 17 16  1  0
 17 18  1  6
 19 20  1  0
 19 18  1  0
 20 21  1  0
 21 22  1  0
 23 17  1  0
 23 24  1  0
 25 23  2  0
M  END
$$$$
