TLK.pdb
     RDKit          3D

 25 24  0  0  1  0  0  0  0  0999 V2000
    7.0109  -17.2275   19.3915 C   0  0  0  0  0  0  0  0  0  0  0  0
    7.4771  -16.8710   20.7568 C   0  0  1  0  0  0  0  0  0  0  0  0
    8.3645  -17.8666   21.2168 O   0  0  0  0  0  0  0  0  0  0  0  0
    8.1780  -15.5600   20.8639 C   0  0  2  0  0  0  0  0  0  0  0  0
    9.3097  -15.5767   19.9644 N   0  0  0  0  0  0  0  0  0  0  0  0
    8.6257  -15.1925   22.1974 C   0  0  0  0  0  0  0  0  0  0  0  0
    9.8018  -15.4515   22.6366 O   0  0  0  0  0  0  0  0  0  0  0  0
    8.3115  -12.0457   26.7996 C   0  0  0  0  0  0  0  0  0  0  0  0
    7.1812  -12.9531   26.4867 C   0  0  1  0  0  0  0  0  0  0  0  0
    5.9037  -12.2244   26.9425 C   0  0  0  0  0  0  0  0  0  0  0  0
    6.9656  -13.3211   25.0691 C   0  0  0  0  0  0  0  0  0  0  0  0
    8.0211  -14.1915   24.4384 C   0  0  2  0  0  0  0  0  0  0  0  0
    7.7344  -14.5135   23.0724 N   0  0  0  0  0  0  0  0  0  0  0  0
    8.2935  -15.3423   25.2980 C   0  0  0  0  0  0  0  0  0  0  0  0
    7.4231  -16.2080   25.5739 O   0  0  0  0  0  0  0  0  0  0  0  0
    9.5812  -15.5340   25.8706 N   0  0  0  0  0  0  0  0  0  0  0  0
    9.9507  -16.7771   26.5716 C   0  0  1  0  0  0  0  0  0  0  0  0
   11.0997  -17.4446   25.9006 C   0  0  0  0  0  0  0  0  0  0  0  0
   11.6128  -18.6730   26.6038 C   0  0  0  0  0  0  0  0  0  0  0  0
   12.8033  -19.2381   25.8271 C   0  0  0  0  0  0  0  0  0  0  0  0
   13.2804  -20.4611   26.5924 C   0  0  0  0  0  0  0  0  0  0  0  0
   14.2937  -21.1805   25.8461 N   0  0  0  0  0  0  0  0  0  0  0  0
   10.2904  -16.4237   27.9598 C   0  0  0  0  0  0  0  0  0  0  0  0
   10.5228  -15.1334   28.4143 O   0  0  0  0  0  0  0  0  0  0  0  0
   10.3920  -17.3409   28.8520 O   0  0  0  0  0  0  0  0  0  0  0  0
  2  1  1  6
  3  2  1  0
  4  6  1  0
  4  2  1  0
  4  5  1  6
  6  7  2  0
  9  8  1  6
  9 11  1  0
 10  9  1  0
 12 11  1  1
 13 12  1  0
 13  6  1  0
 14 15  2  0
 14 12  1  0
 16 14  1  0
 17 16  1  0
 17 18  1  6
 19 20  1  0
 19 18  1  0
 20 21  1  0
 21 22  1  0
 23 17  1  0
 23 24  1  0
 25 23  2  0
M  END
$$$$
