TLK.pdb
     RDKit          3D

 25 24  0  0  1  0  0  0  0  0999 V2000
    6.6105  -16.6084   20.7804 C   0  0  0  0  0  0  0  0  0  0  0  0
    7.4635  -15.5609   20.1611 C   0  0  1  0  0  0  0  0  0  0  0  0
    7.0272  -15.3314   18.8393 O   0  0  0  0  0  0  0  0  0  0  0  0
    7.4671  -14.2485   20.8675 C   0  0  2  0  0  0  0  0  0  0  0  0
    8.0573  -13.2633   19.9894 N   0  0  0  0  0  0  0  0  0  0  0  0
    8.1520  -14.2254   22.1497 C   0  0  0  0  0  0  0  0  0  0  0  0
    9.4282  -14.2673   22.2619 O   0  0  0  0  0  0  0  0  0  0  0  0
    5.9529  -11.7046   26.7338 C   0  0  0  0  0  0  0  0  0  0  0  0
    6.9018  -12.2962   25.7599 C   0  0  1  0  0  0  0  0  0  0  0  0
    8.2911  -11.7361   26.1161 C   0  0  0  0  0  0  0  0  0  0  0  0
    7.0407  -13.7700   25.7420 C   0  0  0  0  0  0  0  0  0  0  0  0
    7.9236  -14.3432   24.6644 C   0  0  2  0  0  0  0  0  0  0  0  0
    7.3909  -14.1533   23.3483 N   0  0  0  0  0  0  0  0  0  0  0  0
    8.2744  -15.7240   24.9930 C   0  0  0  0  0  0  0  0  0  0  0  0
    7.4316  -16.6581   24.9999 O   0  0  0  0  0  0  0  0  0  0  0  0
    9.6117  -16.0750   25.3266 N   0  0  0  0  0  0  0  0  0  0  0  0
    9.9986  -17.4566   25.6657 C   0  0  1  0  0  0  0  0  0  0  0  0
   11.1289  -17.9168   24.8132 C   0  0  0  0  0  0  0  0  0  0  0  0
   11.6911  -19.2629   25.1853 C   0  0  0  0  0  0  0  0  0  0  0  0
   12.8534  -19.5998   24.2497 C   0  0  0  0  0  0  0  0  0  0  0  0
   13.3835  -20.9554   24.6860 C   0  0  0  0  0  0  0  0  0  0  0  0
   14.5168  -21.3572   23.8763 N   0  0  0  0  0  0  0  0  0  0  0  0
   10.3752  -17.4791   27.0887 C   0  0  0  0  0  0  0  0  0  0  0  0
   10.5328  -18.6296   27.8480 O   0  0  0  0  0  0  0  0  0  0  0  0
   10.5824  -16.3797   27.7181 O   0  0  0  0  0  0  0  0  0  0  0  0
  2  1  1  1
  3  2  1  0
  4  6  1  0
  4  2  1  0
  4  5  1  6
  6  7  2  0
  9  8  1  1
  9 11  1  0
 10  9  1  0
 12 11  1  1
 13 12  1  0
 13  6  1  0
 14 15  2  0
 14 12  1  0
 16 14  1  0
 17 16  1  0
 17 18  1  6
 19 20  1  0
 19 18  1  0
 20 21  1  0
 21 22  1  0
 23 17  1  0
 23 24  1  0
 25 23  2  0
M  END
$$$$
