KVW.pdb
     RDKit          3D

 31 32  0  0  1  0  0  0  0  0999 V2000
    8.7566  -17.3445   16.6932 N   0  0  0  0  0  0  0  0  0  0  0  0
    8.8735  -17.8994   17.9935 C   0  0  1  0  0  0  0  0  0  0  0  0
    9.7077  -19.0631   18.2172 C   0  0  0  0  0  0  0  0  0  0  0  0
   10.2969  -19.8253   17.1472 C   0  0  0  0  0  0  0  0  0  0  0  0
   11.2898  -19.5628   16.1550 C   0  0  0  0  0  0  0  0  0  0  0  0
   12.5738  -20.2495   15.9633 C   0  0  0  0  0  0  0  0  0  0  0  0
   12.6631  -21.6451   16.1249 N   0  0  0  0  0  0  0  0  0  0  0  0
    9.2075  -16.7711   18.9722 C   0  0  0  0  0  0  0  0  0  0  0  0
   10.3829  -16.4480   19.1673 O   0  0  0  0  0  0  0  0  0  0  0  0
    7.6669  -12.9965   21.8587 C   0  0  0  0  0  0  0  0  0  0  0  0
    7.3482  -14.0566   20.8226 C   0  0  1  0  0  0  0  0  0  0  0  0
    6.8625  -13.4685   19.5203 C   0  0  0  0  0  0  0  0  0  0  0  0
    8.4542  -15.0579   20.6629 C   0  0  2  0  0  0  0  0  0  0  0  0
    8.2159  -16.0669   19.6765 N   0  0  0  0  0  0  0  0  0  0  0  0
    8.7494  -15.6150   22.0022 C   0  0  0  0  0  0  0  0  0  0  0  0
    7.9934  -16.4159   22.6048 O   0  0  0  0  0  0  0  0  0  0  0  0
    9.9547  -15.2255   22.6453 N   0  0  0  0  0  0  0  0  0  0  0  0
   10.2426  -15.4925   24.0146 C   0  0  1  0  0  0  0  0  0  0  0  0
    8.9989  -15.3477   24.8458 C   0  0  0  0  0  0  0  0  0  0  0  0
    9.1552  -15.5838   26.2812 C   0  0  0  0  0  0  0  0  0  0  0  0
    8.9419  -16.8134   26.9250 C   0  0  0  0  0  0  0  0  0  0  0  0
    9.1697  -16.5805   28.2204 N   0  0  0  0  0  0  0  0  0  0  0  0
    9.5103  -15.2942   28.4325 C   0  0  0  0  0  0  0  0  0  0  0  0
    9.8389  -14.6117   29.5934 C   0  0  0  0  0  0  0  0  0  0  0  0
   10.1621  -13.2776   29.5083 C   0  0  0  0  0  0  0  0  0  0  0  0
   10.1722  -12.5921   28.3135 C   0  0  0  0  0  0  0  0  0  0  0  0
    9.8419  -13.2936   27.1781 C   0  0  0  0  0  0  0  0  0  0  0  0
    9.5103  -14.6281   27.2070 C   0  0  0  0  0  0  0  0  0  0  0  0
   10.9149  -16.7775   24.2524 C   0  0  0  0  0  0  0  0  0  0  0  0
   10.9400  -17.8333   23.3856 O   0  0  0  0  0  0  0  0  0  0  0  0
   11.5204  -16.9160   25.3525 O   0  0  0  0  0  0  0  0  0  0  0  0
  2  1  1  6
  2  3  1  0
  4  5  1  0
  4  3  1  0
  6  5  1  0
  7  6  1  0
  8  2  1  0
  8  9  2  0
 11 10  1  1
 11 12  1  0
 13 14  1  6
 13 11  1  0
 14  8  1  0
 15 13  1  0
 16 15  2  0
 17 15  1  0
 18 17  1  0
 19 20  1  0
 18 19  1  1
 20 28  1  0
 21 22  1  0
 21 20  2  0
 22 23  1  0
 23 28  2  0
 23 24  1  0
 24 25  2  0
 25 26  1  0
 27 26  2  0
 28 27  1  0
 29 18  1  0
 29 30  1  0
 31 29  2  0
M  END
$$$$
