KVW.pdb
     RDKit          3D

 31 32  0  0  1  0  0  0  0  0999 V2000
    9.9850  -14.8272   18.6066 N   0  0  0  0  0  0  0  0  0  0  0  0
    8.9412  -14.5259   19.5188 C   0  0  1  0  0  0  0  0  0  0  0  0
    7.5981  -14.2787   19.0339 C   0  0  0  0  0  0  0  0  0  0  0  0
    7.3217  -13.7000   17.7449 C   0  0  0  0  0  0  0  0  0  0  0  0
    8.1238  -13.1763   16.6859 C   0  0  0  0  0  0  0  0  0  0  0  0
    8.0106  -13.4561   15.2486 C   0  0  0  0  0  0  0  0  0  0  0  0
    6.7926  -13.9098   14.7078 N   0  0  0  0  0  0  0  0  0  0  0  0
    8.9534  -15.5767   20.6314 C   0  0  0  0  0  0  0  0  0  0  0  0
    7.9511  -15.7497   21.3310 O   0  0  0  0  0  0  0  0  0  0  0  0
   11.3172  -19.3142   22.9767 C   0  0  0  0  0  0  0  0  0  0  0  0
   11.1435  -18.4358   21.7532 C   0  0  1  0  0  0  0  0  0  0  0  0
   10.8309  -19.2294   20.5080 C   0  0  0  0  0  0  0  0  0  0  0  0
   10.2065  -17.2889   21.9948 C   0  0  2  0  0  0  0  0  0  0  0  0
   10.0783  -16.3748   20.9014 N   0  0  0  0  0  0  0  0  0  0  0  0
   10.6210  -16.6312   23.2545 C   0  0  0  0  0  0  0  0  0  0  0  0
   11.4830  -15.7204   23.3132 O   0  0  0  0  0  0  0  0  0  0  0  0
   10.0115  -17.0499   24.4675 N   0  0  0  0  0  0  0  0  0  0  0  0
   10.2102  -16.3985   25.7186 C   0  0  1  0  0  0  0  0  0  0  0  0
    9.7955  -14.9568   25.6263 C   0  0  0  0  0  0  0  0  0  0  0  0
    8.3553  -14.7005   25.6494 C   0  0  0  0  0  0  0  0  0  0  0  0
    7.3605  -15.6605   25.4034 C   0  0  0  0  0  0  0  0  0  0  0  0
    6.2013  -15.0039   25.5004 N   0  0  0  0  0  0  0  0  0  0  0  0
    6.4000  -13.7030   25.7897 C   0  0  0  0  0  0  0  0  0  0  0  0
    5.5079  -12.6611   25.9897 C   0  0  0  0  0  0  0  0  0  0  0  0
    6.0031  -11.4135   26.2891 C   0  0  0  0  0  0  0  0  0  0  0  0
    7.3523  -11.1581   26.3983 C   0  0  0  0  0  0  0  0  0  0  0  0
    8.2144  -12.2096   26.1946 C   0  0  0  0  0  0  0  0  0  0  0  0
    7.7724  -13.4766   25.8922 C   0  0  0  0  0  0  0  0  0  0  0  0
    9.5830  -17.0775   26.8611 C   0  0  0  0  0  0  0  0  0  0  0  0
    9.8570  -16.8349   28.1775 O   0  0  0  0  0  0  0  0  0  0  0  0
    8.7172  -17.9603   26.6023 O   0  0  0  0  0  0  0  0  0  0  0  0
  2  1  1  6
  2  3  1  0
  4  5  1  0
  4  3  1  0
  6  5  1  0
  7  6  1  0
  8  2  1  0
  8  9  2  0
 11 10  1  1
 11 12  1  0
 13 14  1  6
 13 11  1  0
 14  8  1  0
 15 13  1  0
 16 15  2  0
 17 15  1  0
 18 17  1  0
 19 20  1  0
 18 19  1  6
 20 28  1  0
 21 22  1  0
 21 20  2  0
 22 23  1  0
 23 28  2  0
 23 24  1  0
 24 25  2  0
 25 26  1  0
 27 26  2  0
 28 27  1  0
 29 18  1  0
 29 30  1  0
 31 29  2  0
M  END
$$$$
