KVW.pdb
     RDKit          3D

 31 32  0  0  1  0  0  0  0  0999 V2000
   10.2149  -18.1879   17.7527 N   0  0  0  0  0  0  0  0  0  0  0  0
    9.0958  -18.0400   18.6119 C   0  0  1  0  0  0  0  0  0  0  0  0
    8.5094  -19.2007   19.2514 C   0  0  0  0  0  0  0  0  0  0  0  0
    8.9356  -20.5484   18.9776 C   0  0  0  0  0  0  0  0  0  0  0  0
    8.3350  -21.6856   18.3569 C   0  0  0  0  0  0  0  0  0  0  0  0
    8.3690  -23.0816   18.8118 C   0  0  0  0  0  0  0  0  0  0  0  0
    7.7495  -23.4489   20.0214 N   0  0  0  0  0  0  0  0  0  0  0  0
    9.4072  -16.9362   19.6253 C   0  0  0  0  0  0  0  0  0  0  0  0
   10.5412  -16.8357   20.1027 O   0  0  0  0  0  0  0  0  0  0  0  0
    8.0060  -12.6995   21.8772 C   0  0  0  0  0  0  0  0  0  0  0  0
    7.6626  -13.8355   20.9336 C   0  0  1  0  0  0  0  0  0  0  0  0
    7.3704  -13.3581   19.5319 C   0  0  0  0  0  0  0  0  0  0  0  0
    8.6545  -14.9595   20.9989 C   0  0  2  0  0  0  0  0  0  0  0  0
    8.4407  -16.0079   20.0487 N   0  0  0  0  0  0  0  0  0  0  0  0
    8.6899  -15.4433   22.3975 C   0  0  0  0  0  0  0  0  0  0  0  0
    7.9416  -16.3492   22.8397 O   0  0  0  0  0  0  0  0  0  0  0  0
    9.6217  -14.8534   23.2930 N   0  0  0  0  0  0  0  0  0  0  0  0
    9.9215  -15.3794   24.5824 C   0  0  1  0  0  0  0  0  0  0  0  0
    8.7322  -16.1145   25.1339 C   0  0  0  0  0  0  0  0  0  0  0  0
    7.6022  -15.2847   25.5522 C   0  0  0  0  0  0  0  0  0  0  0  0
    6.2518  -15.6622   25.4762 C   0  0  0  0  0  0  0  0  0  0  0  0
    5.5633  -14.6127   25.9331 N   0  0  0  0  0  0  0  0  0  0  0  0
    6.3860  -13.6068   26.2894 C   0  0  0  0  0  0  0  0  0  0  0  0
    6.1253  -12.3509   26.8148 C   0  0  0  0  0  0  0  0  0  0  0  0
    7.1833  -11.5194   27.0993 C   0  0  0  0  0  0  0  0  0  0  0  0
    8.4932  -11.8860   26.8824 C   0  0  0  0  0  0  0  0  0  0  0  0
    8.7227  -13.1370   26.3602 C   0  0  0  0  0  0  0  0  0  0  0  0
    7.7017  -14.0074   26.0573 C   0  0  0  0  0  0  0  0  0  0  0  0
   11.1429  -16.1950   24.6345 C   0  0  0  0  0  0  0  0  0  0  0  0
   11.9646  -16.4636   23.5765 O   0  0  0  0  0  0  0  0  0  0  0  0
   11.4585  -16.6889   25.7537 O   0  0  0  0  0  0  0  0  0  0  0  0
  2  1  1  1
  2  3  1  0
  4  5  1  0
  4  3  1  0
  6  5  1  0
  7  6  1  0
  8  2  1  0
  8  9  2  0
 11 10  1  1
 11 12  1  0
 13 14  1  6
 13 11  1  0
 14  8  1  0
 15 13  1  0
 16 15  2  0
 17 15  1  0
 18 17  1  0
 19 20  1  0
 18 19  1  6
 20 28  1  0
 21 22  1  0
 21 20  2  0
 22 23  1  0
 23 28  2  0
 23 24  1  0
 24 25  2  0
 25 26  1  0
 27 26  2  0
 28 27  1  0
 29 18  1  0
 29 30  1  0
 31 29  2  0
M  END
$$$$
