KVW.pdb
     RDKit          3D

 31 32  0  0  1  0  0  0  0  0999 V2000
    6.6434  -19.7437   20.1077 N   0  0  0  0  0  0  0  0  0  0  0  0
    6.3395  -18.8351   21.1539 C   0  0  1  0  0  0  0  0  0  0  0  0
    6.1389  -19.3197   22.5049 C   0  0  0  0  0  0  0  0  0  0  0  0
    5.7069  -20.6603   22.8031 C   0  0  0  0  0  0  0  0  0  0  0  0
    5.3665  -21.3637   23.9984 C   0  0  0  0  0  0  0  0  0  0  0  0
    4.0381  -21.5138   24.6066 C   0  0  0  0  0  0  0  0  0  0  0  0
    3.0737  -22.3466   24.0081 N   0  0  0  0  0  0  0  0  0  0  0  0
    7.3558  -17.6916   21.1113 C   0  0  0  0  0  0  0  0  0  0  0  0
    8.5650  -17.9353   21.1617 O   0  0  0  0  0  0  0  0  0  0  0  0
    8.2979  -12.7866   20.7541 C   0  0  0  0  0  0  0  0  0  0  0  0
    7.3086  -13.9277   20.6199 C   0  0  1  0  0  0  0  0  0  0  0  0
    6.7496  -14.0506   19.2233 C   0  0  0  0  0  0  0  0  0  0  0  0
    7.8351  -15.2164   21.1800 C   0  0  2  0  0  0  0  0  0  0  0  0
    6.9695  -16.3438   21.0141 N   0  0  0  0  0  0  0  0  0  0  0  0
    8.2041  -14.9719   22.5925 C   0  0  0  0  0  0  0  0  0  0  0  0
    7.4406  -14.4269   23.4269 O   0  0  0  0  0  0  0  0  0  0  0  0
    9.4927  -15.3757   23.0337 N   0  0  0  0  0  0  0  0  0  0  0  0
    9.9754  -15.1709   24.3581 C   0  0  1  0  0  0  0  0  0  0  0  0
    9.1165  -15.9104   25.3452 C   0  0  0  0  0  0  0  0  0  0  0  0
    7.8237  -15.2994   25.6552 C   0  0  0  0  0  0  0  0  0  0  0  0
    6.5742  -15.9068   25.4512 C   0  0  0  0  0  0  0  0  0  0  0  0
    5.6717  -15.0027   25.8417 N   0  0  0  0  0  0  0  0  0  0  0  0
    6.2671  -13.8745   26.2753 C   0  0  0  0  0  0  0  0  0  0  0  0
    5.7410  -12.6933   26.7748 C   0  0  0  0  0  0  0  0  0  0  0  0
    6.6044  -11.6941   27.1590 C   0  0  0  0  0  0  0  0  0  0  0  0
    7.9729  -11.8210   27.0670 C   0  0  0  0  0  0  0  0  0  0  0  0
    8.4673  -13.0028   26.5678 C   0  0  0  0  0  0  0  0  0  0  0  0
    7.6487  -14.0336   26.1686 C   0  0  0  0  0  0  0  0  0  0  0  0
   11.4020  -15.4752   24.5364 C   0  0  0  0  0  0  0  0  0  0  0  0
   12.1347  -15.2181   25.6606 O   0  0  0  0  0  0  0  0  0  0  0  0
   12.0002  -16.0209   23.5667 O   0  0  0  0  0  0  0  0  0  0  0  0
  2  1  1  6
  2  3  1  0
  4  5  1  0
  4  3  1  0
  6  5  1  0
  7  6  1  0
  8  2  1  0
  8  9  2  0
 11 10  1  6
 11 12  1  0
 13 14  1  1
 13 11  1  0
 14  8  1  0
 15 13  1  0
 16 15  2  0
 17 15  1  0
 18 17  1  0
 19 20  1  0
 18 19  1  1
 20 28  1  0
 21 22  1  0
 21 20  2  0
 22 23  1  0
 23 28  2  0
 23 24  1  0
 24 25  2  0
 25 26  1  0
 27 26  2  0
 28 27  1  0
 29 18  1  0
 29 30  1  0
 31 29  2  0
M  END
$$$$
