KVW.pdb
     RDKit          3D

 31 32  0  0  1  0  0  0  0  0999 V2000
    8.1297  -16.1964   19.0788 N   0  0  0  0  0  0  0  0  0  0  0  0
    8.4952  -15.0394   19.8137 C   0  0  1  0  0  0  0  0  0  0  0  0
    7.9223  -13.7513   19.4780 C   0  0  0  0  0  0  0  0  0  0  0  0
    7.5961  -13.3633   18.1304 C   0  0  0  0  0  0  0  0  0  0  0  0
    7.5261  -14.0450   16.8775 C   0  0  0  0  0  0  0  0  0  0  0  0
    7.1121  -13.4994   15.5783 C   0  0  0  0  0  0  0  0  0  0  0  0
    8.0508  -13.3496   14.5400 N   0  0  0  0  0  0  0  0  0  0  0  0
    8.3496  -15.3485   21.3056 C   0  0  0  0  0  0  0  0  0  0  0  0
    8.4553  -14.4437   22.1388 O   0  0  0  0  0  0  0  0  0  0  0  0
    6.8394  -18.5798   24.8135 C   0  0  0  0  0  0  0  0  0  0  0  0
    7.0563  -18.2523   23.3490 C   0  0  1  0  0  0  0  0  0  0  0  0
    5.7791  -18.3051   22.5466 C   0  0  0  0  0  0  0  0  0  0  0  0
    7.8477  -16.9930   23.1508 C   0  0  2  0  0  0  0  0  0  0  0  0
    8.0939  -16.6447   21.7848 N   0  0  0  0  0  0  0  0  0  0  0  0
    9.0875  -17.1138   23.9505 C   0  0  0  0  0  0  0  0  0  0  0  0
   10.0300  -17.8906   23.6602 O   0  0  0  0  0  0  0  0  0  0  0  0
    9.2235  -16.3070   25.1119 N   0  0  0  0  0  0  0  0  0  0  0  0
   10.4070  -16.2523   25.9028 C   0  0  1  0  0  0  0  0  0  0  0  0
   10.7151  -14.8307   26.2808 C   0  0  0  0  0  0  0  0  0  0  0  0
    9.6407  -14.0974   26.9504 C   0  0  0  0  0  0  0  0  0  0  0  0
    9.4625  -14.0180   28.3411 C   0  0  0  0  0  0  0  0  0  0  0  0
    8.3626  -13.2806   28.5168 N   0  0  0  0  0  0  0  0  0  0  0  0
    7.8409  -12.8933   27.3364 C   0  0  0  0  0  0  0  0  0  0  0  0
    6.7291  -12.1229   27.0334 C   0  0  0  0  0  0  0  0  0  0  0  0
    6.4360  -11.8737   25.7130 C   0  0  0  0  0  0  0  0  0  0  0  0
    7.2045  -12.3601   24.6785 C   0  0  0  0  0  0  0  0  0  0  0  0
    8.3010  -13.1215   25.0078 C   0  0  0  0  0  0  0  0  0  0  0  0
    8.6388  -13.4014   26.3114 C   0  0  0  0  0  0  0  0  0  0  0  0
   10.3944  -17.1408   27.0734 C   0  0  0  0  0  0  0  0  0  0  0  0
   11.4918  -17.5246   27.7911 O   0  0  0  0  0  0  0  0  0  0  0  0
    9.2728  -17.5866   27.4463 O   0  0  0  0  0  0  0  0  0  0  0  0
  2  1  1  6
  2  3  1  0
  4  5  1  0
  4  3  1  0
  6  5  1  0
  7  6  1  0
  8  2  1  0
  8  9  2  0
 11 10  1  1
 11 12  1  0
 13 14  1  6
 13 11  1  0
 14  8  1  0
 15 13  1  0
 16 15  2  0
 17 15  1  0
 18 17  1  0
 19 20  1  0
 18 19  1  1
 20 28  1  0
 21 22  1  0
 21 20  2  0
 22 23  1  0
 23 28  2  0
 23 24  1  0
 24 25  2  0
 25 26  1  0
 27 26  2  0
 28 27  1  0
 29 18  1  0
 29 30  1  0
 31 29  2  0
M  END
$$$$
