KVW.pdb
     RDKit          3D

 31 32  0  0  1  0  0  0  0  0999 V2000
    7.3494  -16.2744   18.9283 N   0  0  0  0  0  0  0  0  0  0  0  0
    8.6069  -15.8336   19.4148 C   0  0  1  0  0  0  0  0  0  0  0  0
    8.9297  -14.4209   19.4260 C   0  0  0  0  0  0  0  0  0  0  0  0
    8.8781  -13.5934   18.2489 C   0  0  0  0  0  0  0  0  0  0  0  0
    7.8338  -13.1258   17.3945 C   0  0  0  0  0  0  0  0  0  0  0  0
    7.9610  -12.5596   16.0453 C   0  0  0  0  0  0  0  0  0  0  0  0
    8.6698  -13.2553   15.0478 N   0  0  0  0  0  0  0  0  0  0  0  0
    8.8486  -16.4770   20.7823 C   0  0  0  0  0  0  0  0  0  0  0  0
    7.9165  -16.6000   21.5823 O   0  0  0  0  0  0  0  0  0  0  0  0
   11.7329  -19.4502   23.5454 C   0  0  0  0  0  0  0  0  0  0  0  0
   11.4213  -18.7607   22.2315 C   0  0  1  0  0  0  0  0  0  0  0  0
   11.1376  -19.7372   21.1161 C   0  0  0  0  0  0  0  0  0  0  0  0
   10.3854  -17.6848   22.3761 C   0  0  2  0  0  0  0  0  0  0  0  0
   10.1116  -16.9472   21.1808 N   0  0  0  0  0  0  0  0  0  0  0  0
   10.7918  -16.8227   23.5088 C   0  0  0  0  0  0  0  0  0  0  0  0
   11.5835  -15.8548   23.3975 O   0  0  0  0  0  0  0  0  0  0  0  0
   10.2581  -17.1017   24.7955 N   0  0  0  0  0  0  0  0  0  0  0  0
   10.5569  -16.3358   25.9587 C   0  0  1  0  0  0  0  0  0  0  0  0
    9.9473  -14.9663   25.8508 C   0  0  0  0  0  0  0  0  0  0  0  0
    8.4932  -14.8977   25.9967 C   0  0  0  0  0  0  0  0  0  0  0  0
    7.6220  -15.9967   25.9251 C   0  0  0  0  0  0  0  0  0  0  0  0
    6.3967  -15.4898   26.0856 N   0  0  0  0  0  0  0  0  0  0  0  0
    6.4393  -14.1534   26.2527 C   0  0  0  0  0  0  0  0  0  0  0  0
    5.4335  -13.2222   26.4592 C   0  0  0  0  0  0  0  0  0  0  0  0
    5.7770  -11.8992   26.6111 C   0  0  0  0  0  0  0  0  0  0  0  0
    7.0825  -11.4624   26.5660 C   0  0  0  0  0  0  0  0  0  0  0  0
    8.0597  -12.4074   26.3596 C   0  0  0  0  0  0  0  0  0  0  0  0
    7.7712  -13.7428   26.2010 C   0  0  0  0  0  0  0  0  0  0  0  0
   10.2049  -16.9947   27.2243 C   0  0  0  0  0  0  0  0  0  0  0  0
   10.5838  -16.5780   28.4691 O   0  0  0  0  0  0  0  0  0  0  0  0
    9.4913  -18.0347   27.1534 O   0  0  0  0  0  0  0  0  0  0  0  0
  2  1  1  1
  2  3  1  0
  4  5  1  0
  4  3  1  0
  6  5  1  0
  7  6  1  0
  8  2  1  0
  8  9  2  0
 11 10  1  1
 11 12  1  0
 13 14  1  6
 13 11  1  0
 14  8  1  0
 15 13  1  0
 16 15  2  0
 17 15  1  0
 18 17  1  0
 19 20  1  0
 18 19  1  6
 20 28  1  0
 21 22  1  0
 21 20  2  0
 22 23  1  0
 23 28  2  0
 23 24  1  0
 24 25  2  0
 25 26  1  0
 27 26  2  0
 28 27  1  0
 29 18  1  0
 29 30  1  0
 31 29  2  0
M  END
$$$$
