KVW.pdb
     RDKit          3D

 31 32  0  0  1  0  0  0  0  0999 V2000
    8.7524  -19.1475   20.4785 N   0  0  0  0  0  0  0  0  0  0  0  0
   10.0962  -18.6938   20.5076 C   0  0  1  0  0  0  0  0  0  0  0  0
   10.9622  -18.9060   19.3653 C   0  0  0  0  0  0  0  0  0  0  0  0
   10.8004  -20.0052   18.4496 C   0  0  0  0  0  0  0  0  0  0  0  0
   10.1025  -20.1924   17.2178 C   0  0  0  0  0  0  0  0  0  0  0  0
   10.1336  -21.3661   16.3355 C   0  0  0  0  0  0  0  0  0  0  0  0
    9.3458  -21.3982   15.1693 N   0  0  0  0  0  0  0  0  0  0  0  0
   10.1024  -17.2300   20.9544 C   0  0  0  0  0  0  0  0  0  0  0  0
   11.1360  -16.5604   20.8678 O   0  0  0  0  0  0  0  0  0  0  0  0
    7.5142  -13.1359   22.1239 C   0  0  0  0  0  0  0  0  0  0  0  0
    7.5753  -14.5509   21.5827 C   0  0  1  0  0  0  0  0  0  0  0  0
    7.1564  -14.6379   20.1353 C   0  0  0  0  0  0  0  0  0  0  0  0
    8.8822  -15.2259   21.8793 C   0  0  2  0  0  0  0  0  0  0  0  0
    8.9598  -16.5950   21.4704 N   0  0  0  0  0  0  0  0  0  0  0  0
    9.1674  -15.0341   23.3192 C   0  0  0  0  0  0  0  0  0  0  0  0
    8.7323  -14.0676   23.9921 O   0  0  0  0  0  0  0  0  0  0  0  0
    9.9775  -15.9951   23.9813 N   0  0  0  0  0  0  0  0  0  0  0  0
   10.2884  -15.9452   25.3705 C   0  0  1  0  0  0  0  0  0  0  0  0
    9.0828  -16.3166   26.1873 C   0  0  0  0  0  0  0  0  0  0  0  0
    7.8976  -15.4796   25.9995 C   0  0  0  0  0  0  0  0  0  0  0  0
    6.6791  -15.9162   25.4548 C   0  0  0  0  0  0  0  0  0  0  0  0
    5.8889  -14.8393   25.4433 N   0  0  0  0  0  0  0  0  0  0  0  0
    6.5255  -13.7615   25.9418 C   0  0  0  0  0  0  0  0  0  0  0  0
    6.1057  -12.4539   26.1303 C   0  0  0  0  0  0  0  0  0  0  0  0
    6.9830  -11.5497   26.6820 C   0  0  0  0  0  0  0  0  0  0  0  0
    8.2638  -11.8926   27.0550 C   0  0  0  0  0  0  0  0  0  0  0  0
    8.6539  -13.1960   26.8563 C   0  0  0  0  0  0  0  0  0  0  0  0
    7.8170  -14.1399   26.3082 C   0  0  0  0  0  0  0  0  0  0  0  0
   11.4728  -16.7260   25.7543 C   0  0  0  0  0  0  0  0  0  0  0  0
   12.2094  -17.5153   24.9170 O   0  0  0  0  0  0  0  0  0  0  0  0
   11.8395  -16.6608   26.9614 O   0  0  0  0  0  0  0  0  0  0  0  0
  2  1  1  6
  2  3  1  0
  4  5  1  0
  4  3  1  0
  6  5  1  0
  7  6  1  0
  8  2  1  0
  8  9  2  0
 11 10  1  6
 11 12  1  0
 13 14  1  1
 13 11  1  0
 14  8  1  0
 15 13  1  0
 16 15  2  0
 17 15  1  0
 18 17  1  0
 19 20  1  0
 18 19  1  1
 20 28  1  0
 21 22  1  0
 21 20  2  0
 22 23  1  0
 23 28  2  0
 23 24  1  0
 24 25  2  0
 25 26  1  0
 27 26  2  0
 28 27  1  0
 29 18  1  0
 29 30  1  0
 31 29  2  0
M  END
$$$$
