KVW.pdb
     RDKit          3D

 31 32  0  0  1  0  0  0  0  0999 V2000
    7.8576  -16.6230   19.2787 N   0  0  0  0  0  0  0  0  0  0  0  0
    8.5681  -15.7538   20.1460 C   0  0  1  0  0  0  0  0  0  0  0  0
    8.1022  -14.3987   20.3621 C   0  0  0  0  0  0  0  0  0  0  0  0
    8.0823  -13.3996   19.3256 C   0  0  0  0  0  0  0  0  0  0  0  0
    7.2709  -13.1617   18.1748 C   0  0  0  0  0  0  0  0  0  0  0  0
    7.5779  -13.4841   16.7753 C   0  0  0  0  0  0  0  0  0  0  0  0
    8.6557  -12.8564   16.1226 N   0  0  0  0  0  0  0  0  0  0  0  0
    8.8103  -16.4835   21.4693 C   0  0  0  0  0  0  0  0  0  0  0  0
    7.9153  -17.1699   21.9709 O   0  0  0  0  0  0  0  0  0  0  0  0
   12.0720  -18.7838   24.3219 C   0  0  0  0  0  0  0  0  0  0  0  0
   11.6622  -18.0255   23.0746 C   0  0  1  0  0  0  0  0  0  0  0  0
   11.6387  -18.9000   21.8447 C   0  0  0  0  0  0  0  0  0  0  0  0
   10.4108  -17.2216   23.2733 C   0  0  2  0  0  0  0  0  0  0  0  0
   10.0332  -16.4087   22.1579 N   0  0  0  0  0  0  0  0  0  0  0  0
   10.5704  -16.4490   24.5258 C   0  0  0  0  0  0  0  0  0  0  0  0
   11.3664  -15.4866   24.6532 O   0  0  0  0  0  0  0  0  0  0  0  0
    9.7801  -16.8123   25.6491 N   0  0  0  0  0  0  0  0  0  0  0  0
    9.9510  -16.2566   26.9495 C   0  0  1  0  0  0  0  0  0  0  0  0
    8.6152  -15.9277   27.5545 C   0  0  0  0  0  0  0  0  0  0  0  0
    7.7165  -15.1228   26.7269 C   0  0  0  0  0  0  0  0  0  0  0  0
    6.7383  -15.6380   25.8610 C   0  0  0  0  0  0  0  0  0  0  0  0
    6.1709  -14.5714   25.2913 N   0  0  0  0  0  0  0  0  0  0  0  0
    6.7234  -13.4269   25.7389 C   0  0  0  0  0  0  0  0  0  0  0  0
    6.4543  -12.1003   25.4406 C   0  0  0  0  0  0  0  0  0  0  0  0
    7.1833  -11.1188   26.0706 C   0  0  0  0  0  0  0  0  0  0  0  0
    8.1715  -11.4025   26.9873 C   0  0  0  0  0  0  0  0  0  0  0  0
    8.4176  -12.7267   27.2639 C   0  0  0  0  0  0  0  0  0  0  0  0
    7.7187  -13.7471   26.6622 C   0  0  0  0  0  0  0  0  0  0  0  0
   10.7764  -17.0712   27.8522 C   0  0  0  0  0  0  0  0  0  0  0  0
   11.3630  -16.6319   29.0053 O   0  0  0  0  0  0  0  0  0  0  0  0
   10.9580  -18.2800   27.5334 O   0  0  0  0  0  0  0  0  0  0  0  0
  2  1  1  6
  2  3  1  0
  4  5  1  0
  4  3  1  0
  6  5  1  0
  7  6  1  0
  8  2  1  0
  8  9  2  0
 11 10  1  1
 11 12  1  0
 13 14  1  6
 13 11  1  0
 14  8  1  0
 15 13  1  0
 16 15  2  0
 17 15  1  0
 18 17  1  0
 19 20  1  0
 18 19  1  1
 20 28  1  0
 21 22  1  0
 21 20  2  0
 22 23  1  0
 23 28  2  0
 23 24  1  0
 24 25  2  0
 25 26  1  0
 27 26  2  0
 28 27  1  0
 29 18  1  0
 29 30  1  0
 31 29  2  0
M  END
$$$$
