KVW.pdb
     RDKit          3D

 31 32  0  0  1  0  0  0  0  0999 V2000
    8.5417  -18.7888   20.0200 N   0  0  0  0  0  0  0  0  0  0  0  0
    9.8892  -18.3509   19.9507 C   0  0  1  0  0  0  0  0  0  0  0  0
   10.6554  -18.5394   18.7352 C   0  0  0  0  0  0  0  0  0  0  0  0
   10.6386  -19.7635   17.9773 C   0  0  0  0  0  0  0  0  0  0  0  0
    9.6180  -20.6649   17.5470 C   0  0  0  0  0  0  0  0  0  0  0  0
    9.7685  -21.8586   16.7049 C   0  0  0  0  0  0  0  0  0  0  0  0
    8.6558  -22.6739   16.4242 N   0  0  0  0  0  0  0  0  0  0  0  0
    9.9516  -16.9007   20.4360 C   0  0  0  0  0  0  0  0  0  0  0  0
   11.0067  -16.2650   20.3540 O   0  0  0  0  0  0  0  0  0  0  0  0
    7.7492  -12.6755   21.7524 C   0  0  0  0  0  0  0  0  0  0  0  0
    7.6713  -14.0696   21.1615 C   0  0  1  0  0  0  0  0  0  0  0  0
    7.3802  -14.0574   19.6806 C   0  0  0  0  0  0  0  0  0  0  0  0
    8.8437  -14.9244   21.5440 C   0  0  2  0  0  0  0  0  0  0  0  0
    8.8379  -16.2410   20.9834 N   0  0  0  0  0  0  0  0  0  0  0  0
    8.9337  -14.9241   23.0216 C   0  0  0  0  0  0  0  0  0  0  0  0
    8.1731  -14.2571   23.7650 O   0  0  0  0  0  0  0  0  0  0  0  0
    9.9346  -15.7222   23.6376 N   0  0  0  0  0  0  0  0  0  0  0  0
   10.1807  -15.7386   25.0405 C   0  0  1  0  0  0  0  0  0  0  0  0
    8.9740  -16.2524   25.7745 C   0  0  0  0  0  0  0  0  0  0  0  0
    7.7903  -15.3931   25.7442 C   0  0  0  0  0  0  0  0  0  0  0  0
    6.5573  -15.7376   25.1671 C   0  0  0  0  0  0  0  0  0  0  0  0
    5.7740  -14.6693   25.3387 N   0  0  0  0  0  0  0  0  0  0  0  0
    6.4283  -13.6824   25.9816 C   0  0  0  0  0  0  0  0  0  0  0  0
    6.0211  -12.4179   26.3776 C   0  0  0  0  0  0  0  0  0  0  0  0
    6.9161  -11.6115   27.0410 C   0  0  0  0  0  0  0  0  0  0  0  0
    8.2027  -12.0112   27.3277 C   0  0  0  0  0  0  0  0  0  0  0  0
    8.5799  -13.2699   26.9230 C   0  0  0  0  0  0  0  0  0  0  0  0
    7.7251  -14.1163   26.2561 C   0  0  0  0  0  0  0  0  0  0  0  0
   11.4052  -16.4507   25.4321 C   0  0  0  0  0  0  0  0  0  0  0  0
   12.2453  -17.1129   24.5821 O   0  0  0  0  0  0  0  0  0  0  0  0
   11.7050  -16.4493   26.6593 O   0  0  0  0  0  0  0  0  0  0  0  0
  2  1  1  6
  2  3  1  0
  4  5  1  0
  4  3  1  0
  6  5  1  0
  7  6  1  0
  8  2  1  0
  8  9  2  0
 11 10  1  6
 11 12  1  0
 13 14  1  1
 13 11  1  0
 14  8  1  0
 15 13  1  0
 16 15  2  0
 17 15  1  0
 18 17  1  0
 19 20  1  0
 18 19  1  1
 20 28  1  0
 21 22  1  0
 21 20  2  0
 22 23  1  0
 23 28  2  0
 23 24  1  0
 24 25  2  0
 25 26  1  0
 27 26  2  0
 28 27  1  0
 29 18  1  0
 29 30  1  0
 31 29  2  0
M  END
$$$$
