WEG.pdb
     RDKit          3D

 28 29  0  0  1  0  0  0  0  0999 V2000
    7.1161  -17.6681   23.9527 N   0  0  0  0  0  0  0  0  0  0  0  0
    8.1573  -16.6815   23.8583 C   0  0  1  0  0  0  0  0  0  0  0  0
    8.4908  -16.0612   25.1866 C   0  0  0  0  0  0  0  0  0  0  0  0
    7.4057  -15.2195   25.7380 C   0  0  0  0  0  0  0  0  0  0  0  0
    6.1882  -15.6231   26.2588 C   0  0  0  0  0  0  0  0  0  0  0  0
    5.4881  -14.5273   26.6240 N   0  0  0  0  0  0  0  0  0  0  0  0
    6.2111  -13.4218   26.3580 C   0  0  0  0  0  0  0  0  0  0  0  0
    5.9396  -12.0931   26.5507 C   0  0  0  0  0  0  0  0  0  0  0  0
    6.8539  -11.1461   26.1994 C   0  0  0  0  0  0  0  0  0  0  0  0
    8.0525  -11.5244   25.6505 C   0  0  0  0  0  0  0  0  0  0  0  0
    8.3191  -12.8510   25.4598 C   0  0  0  0  0  0  0  0  0  0  0  0
    7.4188  -13.8446   25.8011 C   0  0  0  0  0  0  0  0  0  0  0  0
    9.3838  -17.2206   23.1828 C   0  0  0  0  0  0  0  0  0  0  0  0
    9.8156  -18.3860   23.4700 O   0  0  0  0  0  0  0  0  0  0  0  0
   10.0357  -16.4005   22.2263 N   0  0  0  0  0  0  0  0  0  0  0  0
   11.2458  -16.9205   21.5555 C   0  0  1  0  0  0  0  0  0  0  0  0
   11.4214  -16.1650   20.2673 C   0  0  0  0  0  0  0  0  0  0  0  0
   10.4026  -16.3856   19.2229 C   0  0  0  0  0  0  0  0  0  0  0  0
   10.8342  -17.5642   18.3892 C   0  0  0  0  0  0  0  0  0  0  0  0
   11.8665  -18.2120   18.6504 O   0  0  0  0  0  0  0  0  0  0  0  0
   12.4360  -16.6555   22.3952 C   0  0  0  0  0  0  0  0  0  0  0  0
   12.3514  -15.8522   23.3537 O   0  0  0  0  0  0  0  0  0  0  0  0
   10.0740  -17.9423   17.3090 O   0  0  0  0  0  0  0  0  0  0  0  0
   13.7150  -17.2631   22.1935 N   0  0  0  0  0  0  0  0  0  0  0  0
   14.6231  -17.5642   23.2588 C   0  0  0  0  0  0  0  0  0  0  0  0
   15.2649  -16.3822   23.8666 C   0  0  0  0  0  0  0  0  0  0  0  0
   15.8570  -15.4626   22.9928 O   0  0  0  0  0  0  0  0  0  0  0  0
   15.3284  -16.1278   25.0779 O   0  0  0  0  0  0  0  0  0  0  0  0
  2  1  1  1
  2  3  1  0
  2 13  1  0
  3  4  1  0
  4  5  2  0
  5  6  1  0
  7  8  2  0
  7  6  1  0
  9  8  1  0
 10  9  2  0
 11 10  1  0
 11 12  2  0
 12  4  1  0
 12  7  1  0
 13 15  1  0
 13 14  2  0
 15 16  1  0
 16 17  1  6
 18 17  1  0
 19 20  2  0
 19 18  1  0
 21 16  1  0
 21 22  2  0
 23 19  1  0
 24 21  1  0
 25 24  1  0
 26 25  1  0
 27 26  1  0
 28 26  2  0
M  END
$$$$
