WEG.pdb
     RDKit          3D

 28 29  0  0  1  0  0  0  0  0999 V2000
    7.6220  -16.9287   22.2700 N   0  0  0  0  0  0  0  0  0  0  0  0
    8.3650  -15.6992   22.2189 C   0  0  1  0  0  0  0  0  0  0  0  0
    7.5461  -14.5087   22.6342 C   0  0  0  0  0  0  0  0  0  0  0  0
    7.0234  -14.6004   24.0156 C   0  0  0  0  0  0  0  0  0  0  0  0
    6.5250  -15.7130   24.6715 C   0  0  0  0  0  0  0  0  0  0  0  0
    6.1311  -15.3459   25.9102 N   0  0  0  0  0  0  0  0  0  0  0  0
    6.3574  -14.0288   26.0828 C   0  0  0  0  0  0  0  0  0  0  0  0
    6.1360  -13.2038   27.1535 C   0  0  0  0  0  0  0  0  0  0  0  0
    6.4637  -11.8832   27.0837 C   0  0  0  0  0  0  0  0  0  0  0  0
    7.0185  -11.3769   25.9361 C   0  0  0  0  0  0  0  0  0  0  0  0
    7.2374  -12.2035   24.8703 C   0  0  0  0  0  0  0  0  0  0  0  0
    6.9187  -13.5496   24.8983 C   0  0  0  0  0  0  0  0  0  0  0  0
    9.6445  -15.7820   22.9982 C   0  0  0  0  0  0  0  0  0  0  0  0
   10.4278  -14.7769   23.0559 O   0  0  0  0  0  0  0  0  0  0  0  0
    9.9469  -16.9999   23.6599 N   0  0  0  0  0  0  0  0  0  0  0  0
   11.2559  -17.1334   24.3332 C   0  0  1  0  0  0  0  0  0  0  0  0
   11.2697  -18.4490   25.0613 C   0  0  0  0  0  0  0  0  0  0  0  0
   12.4559  -18.7379   25.8900 C   0  0  0  0  0  0  0  0  0  0  0  0
   12.1392  -18.3515   27.3116 C   0  0  0  0  0  0  0  0  0  0  0  0
   11.2168  -18.8937   27.9509 O   0  0  0  0  0  0  0  0  0  0  0  0
   12.3368  -17.1705   23.3221 C   0  0  0  0  0  0  0  0  0  0  0  0
   12.1092  -17.6575   22.1898 O   0  0  0  0  0  0  0  0  0  0  0  0
   12.8834  -17.3748   27.9281 O   0  0  0  0  0  0  0  0  0  0  0  0
   13.6618  -16.6787   23.5416 N   0  0  0  0  0  0  0  0  0  0  0  0
   14.7014  -16.7446   22.5593 C   0  0  0  0  0  0  0  0  0  0  0  0
   15.9794  -16.1386   22.9812 C   0  0  0  0  0  0  0  0  0  0  0  0
   17.0383  -16.1909   22.0671 O   0  0  0  0  0  0  0  0  0  0  0  0
   16.2024  -15.5879   24.0689 O   0  0  0  0  0  0  0  0  0  0  0  0
  2  1  1  1
  2  3  1  0
  2 13  1  0
  3  4  1  0
  4  5  2  0
  5  6  1  0
  7  8  2  0
  7  6  1  0
  9  8  1  0
 10  9  2  0
 11 10  1  0
 11 12  2  0
 12  4  1  0
 12  7  1  0
 13 15  1  0
 13 14  2  0
 15 16  1  0
 16 17  1  6
 18 17  1  0
 19 20  2  0
 19 18  1  0
 21 16  1  0
 21 22  2  0
 23 19  1  0
 24 21  1  0
 25 24  1  0
 26 25  1  0
 27 26  1  0
 28 26  2  0
M  END
$$$$
