WEG.pdb
     RDKit          3D

 28 29  0  0  1  0  0  0  0  0999 V2000
    6.5542  -17.8578   24.3997 N   0  0  0  0  0  0  0  0  0  0  0  0
    7.6875  -17.0326   24.0818 C   0  0  1  0  0  0  0  0  0  0  0  0
    8.0983  -16.1460   25.2244 C   0  0  0  0  0  0  0  0  0  0  0  0
    7.0772  -15.1401   25.5924 C   0  0  0  0  0  0  0  0  0  0  0  0
    5.7709  -15.3534   25.9978 C   0  0  0  0  0  0  0  0  0  0  0  0
    5.1811  -14.1566   26.2078 N   0  0  0  0  0  0  0  0  0  0  0  0
    6.0622  -13.1695   25.9524 C   0  0  0  0  0  0  0  0  0  0  0  0
    5.9427  -11.8069   26.0244 C   0  0  0  0  0  0  0  0  0  0  0  0
    7.0012  -11.0063   25.7167 C   0  0  0  0  0  0  0  0  0  0  0  0
    8.1928  -11.5669   25.3332 C   0  0  0  0  0  0  0  0  0  0  0  0
    8.3075  -12.9267   25.2624 C   0  0  0  0  0  0  0  0  0  0  0  0
    7.2579  -13.7760   25.5651 C   0  0  0  0  0  0  0  0  0  0  0  0
    8.8451  -17.8389   23.5710 C   0  0  0  0  0  0  0  0  0  0  0  0
    8.9672  -19.0658   23.8977 O   0  0  0  0  0  0  0  0  0  0  0  0
    9.7847  -17.1976   22.7233 N   0  0  0  0  0  0  0  0  0  0  0  0
   11.0331  -17.9117   22.3825 C   0  0  1  0  0  0  0  0  0  0  0  0
   11.7165  -17.1490   21.2814 C   0  0  0  0  0  0  0  0  0  0  0  0
   13.0095  -17.6797   20.8083 C   0  0  0  0  0  0  0  0  0  0  0  0
   13.3434  -17.0046   19.5033 C   0  0  0  0  0  0  0  0  0  0  0  0
   12.5629  -17.0283   18.5317 O   0  0  0  0  0  0  0  0  0  0  0  0
   11.9408  -17.9181   23.5521 C   0  0  0  0  0  0  0  0  0  0  0  0
   12.5836  -16.8821   23.8429 O   0  0  0  0  0  0  0  0  0  0  0  0
   14.5398  -16.3420   19.3719 O   0  0  0  0  0  0  0  0  0  0  0  0
   12.1483  -19.0482   24.4039 N   0  0  0  0  0  0  0  0  0  0  0  0
   13.0868  -19.0603   25.4852 C   0  0  0  0  0  0  0  0  0  0  0  0
   12.5218  -18.6601   26.7886 C   0  0  0  0  0  0  0  0  0  0  0  0
   12.3151  -19.6763   27.7291 O   0  0  0  0  0  0  0  0  0  0  0  0
   12.2134  -17.5087   27.1282 O   0  0  0  0  0  0  0  0  0  0  0  0
  2  1  1  1
  2  3  1  0
  2 13  1  0
  3  4  1  0
  4  5  2  0
  5  6  1  0
  7  8  2  0
  7  6  1  0
  9  8  1  0
 10  9  2  0
 11 10  1  0
 11 12  2  0
 12  4  1  0
 12  7  1  0
 13 15  1  0
 13 14  2  0
 15 16  1  0
 16 17  1  6
 18 17  1  0
 19 20  2  0
 19 18  1  0
 21 16  1  0
 21 22  2  0
 23 19  1  0
 24 21  1  0
 25 24  1  0
 26 25  1  0
 27 26  1  0
 28 26  2  0
M  END
$$$$
