WEG.pdb
     RDKit          3D

 28 29  0  0  1  0  0  0  0  0999 V2000
    8.3202  -16.3253   23.4881 N   0  0  0  0  0  0  0  0  0  0  0  0
    9.0781  -16.1653   24.6991 C   0  0  1  0  0  0  0  0  0  0  0  0
    8.2152  -16.1832   25.9301 C   0  0  0  0  0  0  0  0  0  0  0  0
    7.1305  -15.1769   25.9096 C   0  0  0  0  0  0  0  0  0  0  0  0
    5.7671  -15.3882   25.7955 C   0  0  0  0  0  0  0  0  0  0  0  0
    5.1415  -14.1912   25.7925 N   0  0  0  0  0  0  0  0  0  0  0  0
    6.0541  -13.2059   25.9014 C   0  0  0  0  0  0  0  0  0  0  0  0
    5.9163  -11.8440   25.9484 C   0  0  0  0  0  0  0  0  0  0  0  0
    7.0133  -11.0453   26.0715 C   0  0  0  0  0  0  0  0  0  0  0  0
    8.2619  -11.6073   26.1491 C   0  0  0  0  0  0  0  0  0  0  0  0
    8.3949  -12.9664   26.1016 C   0  0  0  0  0  0  0  0  0  0  0  0
    7.3082  -13.8137   25.9762 C   0  0  0  0  0  0  0  0  0  0  0  0
   10.1955  -17.1616   24.7994 C   0  0  0  0  0  0  0  0  0  0  0  0
   10.2823  -17.9295   25.8142 O   0  0  0  0  0  0  0  0  0  0  0  0
   11.1376  -17.2189   23.7403 N   0  0  0  0  0  0  0  0  0  0  0  0
   12.2215  -18.2213   23.8108 C   0  0  1  0  0  0  0  0  0  0  0  0
   13.1862  -17.9390   22.6923 C   0  0  0  0  0  0  0  0  0  0  0  0
   12.7205  -18.2316   21.3230 C   0  0  0  0  0  0  0  0  0  0  0  0
   13.4923  -17.3570   20.3692 C   0  0  0  0  0  0  0  0  0  0  0  0
   13.5308  -16.1178   20.4973 O   0  0  0  0  0  0  0  0  0  0  0  0
   12.9590  -18.0715   25.0859 C   0  0  0  0  0  0  0  0  0  0  0  0
   13.7344  -17.0992   25.2423 O   0  0  0  0  0  0  0  0  0  0  0  0
   14.1759  -17.9337   19.3261 O   0  0  0  0  0  0  0  0  0  0  0  0
   12.8529  -18.9764   26.1883 N   0  0  0  0  0  0  0  0  0  0  0  0
   13.5902  -18.8268   27.4066 C   0  0  0  0  0  0  0  0  0  0  0  0
   13.4031  -19.9269   28.3726 C   0  0  0  0  0  0  0  0  0  0  0  0
   13.9945  -19.7723   29.6320 O   0  0  0  0  0  0  0  0  0  0  0  0
   12.7714  -20.9743   28.1730 O   0  0  0  0  0  0  0  0  0  0  0  0
  2  1  1  6
  2  3  1  0
  2 13  1  0
  3  4  1  0
  4  5  2  0
  5  6  1  0
  7  8  2  0
  7  6  1  0
  9  8  1  0
 10  9  2  0
 11 10  1  0
 11 12  2  0
 12  4  1  0
 12  7  1  0
 13 15  1  0
 13 14  2  0
 15 16  1  0
 16 17  1  6
 18 17  1  0
 19 20  2  0
 19 18  1  0
 21 16  1  0
 21 22  2  0
 23 19  1  0
 24 21  1  0
 25 24  1  0
 26 25  1  0
 27 26  1  0
 28 26  2  0
M  END
$$$$
