WEG.pdb
     RDKit          3D

 28 29  0  0  1  0  0  0  0  0999 V2000
    7.6366  -17.8485   24.5044 N   0  0  0  0  0  0  0  0  0  0  0  0
    8.5116  -16.7473   24.2079 C   0  0  1  0  0  0  0  0  0  0  0  0
    8.6460  -15.7873   25.3572 C   0  0  0  0  0  0  0  0  0  0  0  0
    7.3959  -15.0613   25.6736 C   0  0  0  0  0  0  0  0  0  0  0  0
    6.1415  -15.5866   25.9326 C   0  0  0  0  0  0  0  0  0  0  0  0
    5.2805  -14.5682   26.1461 N   0  0  0  0  0  0  0  0  0  0  0  0
    5.9342  -13.3951   26.0349 C   0  0  0  0  0  0  0  0  0  0  0  0
    5.5039  -12.1016   26.1679 C   0  0  0  0  0  0  0  0  0  0  0  0
    6.3765  -11.0668   26.0126 C   0  0  0  0  0  0  0  0  0  0  0  0
    7.6925  -11.3211   25.7220 C   0  0  0  0  0  0  0  0  0  0  0  0
    8.1175  -12.6131   25.5899 C   0  0  0  0  0  0  0  0  0  0  0  0
    7.2650  -13.6927   25.7384 C   0  0  0  0  0  0  0  0  0  0  0  0
    9.8535  -17.2099   23.7216 C   0  0  0  0  0  0  0  0  0  0  0  0
   10.4566  -18.1657   24.3131 O   0  0  0  0  0  0  0  0  0  0  0  0
   10.4188  -16.5567   22.5962 N   0  0  0  0  0  0  0  0  0  0  0  0
   11.7946  -16.9116   22.1893 C   0  0  1  0  0  0  0  0  0  0  0  0
   12.0184  -16.3787   20.8010 C   0  0  0  0  0  0  0  0  0  0  0  0
   11.2223  -16.9883   19.7185 C   0  0  0  0  0  0  0  0  0  0  0  0
   12.0439  -18.0866   19.0947 C   0  0  0  0  0  0  0  0  0  0  0  0
   12.6380  -18.9372   19.7855 O   0  0  0  0  0  0  0  0  0  0  0  0
   12.7682  -16.2476   23.0855 C   0  0  0  0  0  0  0  0  0  0  0  0
   12.4129  -15.2494   23.7551 O   0  0  0  0  0  0  0  0  0  0  0  0
   12.1462  -18.1600   17.7265 O   0  0  0  0  0  0  0  0  0  0  0  0
   14.1247  -16.6686   23.2537 N   0  0  0  0  0  0  0  0  0  0  0  0
   15.0297  -16.0637   24.1838 C   0  0  0  0  0  0  0  0  0  0  0  0
   16.3439  -16.7289   24.2777 C   0  0  0  0  0  0  0  0  0  0  0  0
   17.2979  -16.1335   25.1115 O   0  0  0  0  0  0  0  0  0  0  0  0
   16.6816  -17.7652   23.6876 O   0  0  0  0  0  0  0  0  0  0  0  0
  2  1  1  1
  2  3  1  0
  2 13  1  0
  3  4  1  0
  4  5  2  0
  5  6  1  0
  7  8  2  0
  7  6  1  0
  9  8  1  0
 10  9  2  0
 11 10  1  0
 11 12  2  0
 12  4  1  0
 12  7  1  0
 13 15  1  0
 13 14  2  0
 15 16  1  0
 16 17  1  6
 18 17  1  0
 19 20  2  0
 19 18  1  0
 21 16  1  0
 21 22  2  0
 23 19  1  0
 24 21  1  0
 25 24  1  0
 26 25  1  0
 27 26  1  0
 28 26  2  0
M  END
$$$$
