WEG.pdb
     RDKit          3D

 28 29  0  0  1  0  0  0  0  0999 V2000
    7.5423  -18.1268   24.9387 N   0  0  0  0  0  0  0  0  0  0  0  0
    8.2774  -17.1703   24.1569 C   0  0  1  0  0  0  0  0  0  0  0  0
    8.7270  -15.9842   24.9640 C   0  0  0  0  0  0  0  0  0  0  0  0
    7.6114  -15.1983   25.5364 C   0  0  0  0  0  0  0  0  0  0  0  0
    6.4063  -15.6597   26.0376 C   0  0  0  0  0  0  0  0  0  0  0  0
    5.6675  -14.6008   26.4341 N   0  0  0  0  0  0  0  0  0  0  0  0
    6.3534  -13.4633   26.2075 C   0  0  0  0  0  0  0  0  0  0  0  0
    6.0357  -12.1516   26.4414 C   0  0  0  0  0  0  0  0  0  0  0  0
    6.9185  -11.1631   26.1256 C   0  0  0  0  0  0  0  0  0  0  0  0
    8.1317  -11.4824   25.5711 C   0  0  0  0  0  0  0  0  0  0  0  0
    8.4444  -12.7922   25.3392 C   0  0  0  0  0  0  0  0  0  0  0  0
    7.5772  -13.8265   25.6437 C   0  0  0  0  0  0  0  0  0  0  0  0
    9.4259  -17.8032   23.4278 C   0  0  0  0  0  0  0  0  0  0  0  0
   10.0246  -18.8134   23.9258 O   0  0  0  0  0  0  0  0  0  0  0  0
    9.8157  -17.2467   22.1824 N   0  0  0  0  0  0  0  0  0  0  0  0
   10.8986  -17.9046   21.4213 C   0  0  1  0  0  0  0  0  0  0  0  0
   10.7531  -17.5124   19.9769 C   0  0  0  0  0  0  0  0  0  0  0  0
   11.7047  -18.1168   19.0248 C   0  0  0  0  0  0  0  0  0  0  0  0
   11.2179  -17.8268   17.6286 C   0  0  0  0  0  0  0  0  0  0  0  0
   10.8765  -16.6812   17.2756 O   0  0  0  0  0  0  0  0  0  0  0  0
   12.2122  -17.4074   21.8895 C   0  0  0  0  0  0  0  0  0  0  0  0
   13.1840  -17.3855   21.0982 O   0  0  0  0  0  0  0  0  0  0  0  0
   11.1454  -18.8482   16.7125 O   0  0  0  0  0  0  0  0  0  0  0  0
   12.4682  -16.9346   23.2148 N   0  0  0  0  0  0  0  0  0  0  0  0
   13.7619  -16.5238   23.6706 C   0  0  0  0  0  0  0  0  0  0  0  0
   13.8077  -16.1109   25.0869 C   0  0  0  0  0  0  0  0  0  0  0  0
   15.0327  -15.6351   25.5694 O   0  0  0  0  0  0  0  0  0  0  0  0
   12.8631  -16.1459   25.8885 O   0  0  0  0  0  0  0  0  0  0  0  0
  2  1  1  1
  2  3  1  0
  2 13  1  0
  3  4  1  0
  4  5  2  0
  5  6  1  0
  7  8  2  0
  7  6  1  0
  9  8  1  0
 10  9  2  0
 11 10  1  0
 11 12  2  0
 12  4  1  0
 12  7  1  0
 13 15  1  0
 13 14  2  0
 15 16  1  0
 16 17  1  6
 18 17  1  0
 19 20  2  0
 19 18  1  0
 21 16  1  0
 21 22  2  0
 23 19  1  0
 24 21  1  0
 25 24  1  0
 26 25  1  0
 27 26  1  0
 28 26  2  0
M  END
$$$$
