WEG.pdb
     RDKit          3D

 28 29  0  0  1  0  0  0  0  0999 V2000
    6.7342  -17.9695   24.4946 N   0  0  0  0  0  0  0  0  0  0  0  0
    7.5940  -16.8719   24.1448 C   0  0  1  0  0  0  0  0  0  0  0  0
    8.0360  -16.0769   25.3420 C   0  0  0  0  0  0  0  0  0  0  0  0
    7.0497  -15.0642   25.7793 C   0  0  0  0  0  0  0  0  0  0  0  0
    5.7900  -15.2699   26.3154 C   0  0  0  0  0  0  0  0  0  0  0  0
    5.2165  -14.0694   26.5485 N   0  0  0  0  0  0  0  0  0  0  0  0
    6.0630  -13.0873   26.1817 C   0  0  0  0  0  0  0  0  0  0  0  0
    5.9434  -11.7236   26.2273 C   0  0  0  0  0  0  0  0  0  0  0  0
    6.9625  -10.9287   25.7963 C   0  0  0  0  0  0  0  0  0  0  0  0
    8.1144  -11.4963   25.3146 C   0  0  0  0  0  0  0  0  0  0  0  0
    8.2295  -12.8572   25.2706 C   0  0  0  0  0  0  0  0  0  0  0  0
    7.2191  -13.7007   25.6970 C   0  0  0  0  0  0  0  0  0  0  0  0
    8.7658  -17.3157   23.3196 C   0  0  0  0  0  0  0  0  0  0  0  0
    9.2245  -18.4998   23.4399 O   0  0  0  0  0  0  0  0  0  0  0  0
    9.3362  -16.3853   22.4131 N   0  0  0  0  0  0  0  0  0  0  0  0
   10.5597  -16.7714   21.6792 C   0  0  1  0  0  0  0  0  0  0  0  0
   10.7181  -15.8308   20.5167 C   0  0  0  0  0  0  0  0  0  0  0  0
   11.8612  -16.0738   19.6158 C   0  0  0  0  0  0  0  0  0  0  0  0
   11.4944  -17.2032   18.6882 C   0  0  0  0  0  0  0  0  0  0  0  0
   10.7490  -17.0306   17.7041 O   0  0  0  0  0  0  0  0  0  0  0  0
   11.7419  -16.6036   22.5546 C   0  0  0  0  0  0  0  0  0  0  0  0
   11.9493  -15.4993   23.1102 O   0  0  0  0  0  0  0  0  0  0  0  0
   11.9913  -18.4618   18.9263 O   0  0  0  0  0  0  0  0  0  0  0  0
   12.6958  -17.6342   22.8256 N   0  0  0  0  0  0  0  0  0  0  0  0
   13.8128  -17.4649   23.7053 C   0  0  0  0  0  0  0  0  0  0  0  0
   14.9593  -16.7540   23.1065 C   0  0  0  0  0  0  0  0  0  0  0  0
   16.0793  -16.5562   23.9227 O   0  0  0  0  0  0  0  0  0  0  0  0
   15.0230  -16.3159   21.9488 O   0  0  0  0  0  0  0  0  0  0  0  0
  2  1  1  1
  2  3  1  0
  2 13  1  0
  3  4  1  0
  4  5  2  0
  5  6  1  0
  7  8  2  0
  7  6  1  0
  9  8  1  0
 10  9  2  0
 11 10  1  0
 11 12  2  0
 12  4  1  0
 12  7  1  0
 13 15  1  0
 13 14  2  0
 15 16  1  0
 16 17  1  6
 18 17  1  0
 19 20  2  0
 19 18  1  0
 21 16  1  0
 21 22  2  0
 23 19  1  0
 24 21  1  0
 25 24  1  0
 26 25  1  0
 27 26  1  0
 28 26  2  0
M  END
$$$$
