WEG.pdb
     RDKit          3D

 28 29  0  0  1  0  0  0  0  0999 V2000
    6.4833  -17.8484   24.8061 N   0  0  0  0  0  0  0  0  0  0  0  0
    7.5038  -17.0372   24.2004 C   0  0  1  0  0  0  0  0  0  0  0  0
    8.1498  -16.0932   25.1762 C   0  0  0  0  0  0  0  0  0  0  0  0
    7.2533  -15.0093   25.6359 C   0  0  0  0  0  0  0  0  0  0  0  0
    6.1374  -15.1069   26.4492 C   0  0  0  0  0  0  0  0  0  0  0  0
    5.5981  -13.8772   26.5949 N   0  0  0  0  0  0  0  0  0  0  0  0
    6.3277  -12.9806   25.9024 C   0  0  0  0  0  0  0  0  0  0  0  0
    6.1896  -11.6269   25.7458 C   0  0  0  0  0  0  0  0  0  0  0  0
    7.0790  -10.9280   24.9864 C   0  0  0  0  0  0  0  0  0  0  0  0
    8.1182  -11.5824   24.3758 C   0  0  0  0  0  0  0  0  0  0  0  0
    8.2521  -12.9330   24.5345 C   0  0  0  0  0  0  0  0  0  0  0  0
    7.3714  -13.6809   25.2957 C   0  0  0  0  0  0  0  0  0  0  0  0
    8.5273  -17.8651   23.4805 C   0  0  0  0  0  0  0  0  0  0  0  0
    8.7473  -19.0692   23.8392 O   0  0  0  0  0  0  0  0  0  0  0  0
    9.2306  -17.2699   22.4017 N   0  0  0  0  0  0  0  0  0  0  0  0
   10.3707  -18.0016   21.8106 C   0  0  1  0  0  0  0  0  0  0  0  0
   10.6637  -17.3938   20.4668 C   0  0  0  0  0  0  0  0  0  0  0  0
   11.7625  -17.9981   19.6891 C   0  0  0  0  0  0  0  0  0  0  0  0
   11.7233  -17.4218   18.2974 C   0  0  0  0  0  0  0  0  0  0  0  0
   12.6287  -16.6815   17.8662 O   0  0  0  0  0  0  0  0  0  0  0  0
   11.5731  -17.8203   22.6552 C   0  0  0  0  0  0  0  0  0  0  0  0
   12.6630  -18.3259   22.2977 O   0  0  0  0  0  0  0  0  0  0  0  0
   10.6635  -17.7156   17.4740 O   0  0  0  0  0  0  0  0  0  0  0  0
   11.5905  -17.0904   23.8850 N   0  0  0  0  0  0  0  0  0  0  0  0
   12.7772  -16.8684   24.6548 C   0  0  0  0  0  0  0  0  0  0  0  0
   13.2405  -18.0451   25.4159 C   0  0  0  0  0  0  0  0  0  0  0  0
   14.2966  -17.8446   26.3127 O   0  0  0  0  0  0  0  0  0  0  0  0
   12.7819  -19.1937   25.3352 O   0  0  0  0  0  0  0  0  0  0  0  0
  2  1  1  1
  2  3  1  0
  2 13  1  0
  3  4  1  0
  4  5  2  0
  5  6  1  0
  7  8  2  0
  7  6  1  0
  9  8  1  0
 10  9  2  0
 11 10  1  0
 11 12  2  0
 12  4  1  0
 12  7  1  0
 13 15  1  0
 13 14  2  0
 15 16  1  0
 16 17  1  6
 18 17  1  0
 19 20  2  0
 19 18  1  0
 21 16  1  0
 21 22  2  0
 23 19  1  0
 24 21  1  0
 25 24  1  0
 26 25  1  0
 27 26  1  0
 28 26  2  0
M  END
$$$$
