WEG.pdb
     RDKit          3D

 28 29  0  0  1  0  0  0  0  0999 V2000
    6.6604  -17.7556   24.4034 N   0  0  0  0  0  0  0  0  0  0  0  0
    7.8482  -16.9490   24.4720 C   0  0  1  0  0  0  0  0  0  0  0  0
    7.9539  -16.1803   25.7598 C   0  0  0  0  0  0  0  0  0  0  0  0
    6.9259  -15.1262   25.9081 C   0  0  0  0  0  0  0  0  0  0  0  0
    5.5950  -15.2703   26.2606 C   0  0  0  0  0  0  0  0  0  0  0  0
    5.0095  -14.0532   26.2506 N   0  0  0  0  0  0  0  0  0  0  0  0
    5.9171  -13.1198   25.9031 C   0  0  0  0  0  0  0  0  0  0  0  0
    5.8115  -11.7616   25.7606 C   0  0  0  0  0  0  0  0  0  0  0  0
    6.8969  -11.0212   25.4004 C   0  0  0  0  0  0  0  0  0  0  0  0
    8.1018  -11.6382   25.1797 C   0  0  0  0  0  0  0  0  0  0  0  0
    8.2027  -12.9934   25.3228 C   0  0  0  0  0  0  0  0  0  0  0  0
    7.1258  -13.7827   25.6857 C   0  0  0  0  0  0  0  0  0  0  0  0
    9.0889  -17.7509   24.2100 C   0  0  0  0  0  0  0  0  0  0  0  0
    9.2250  -18.9103   24.7241 O   0  0  0  0  0  0  0  0  0  0  0  0
   10.0902  -17.1824   23.3812 N   0  0  0  0  0  0  0  0  0  0  0  0
   11.4308  -17.8047   23.3626 C   0  0  1  0  0  0  0  0  0  0  0  0
   12.2614  -17.0835   22.3373 C   0  0  0  0  0  0  0  0  0  0  0  0
   13.6123  -17.6184   22.0803 C   0  0  0  0  0  0  0  0  0  0  0  0
   14.2241  -16.8244   20.9553 C   0  0  0  0  0  0  0  0  0  0  0  0
   15.1994  -16.0699   21.1371 O   0  0  0  0  0  0  0  0  0  0  0  0
   12.0855  -17.6214   24.6778 C   0  0  0  0  0  0  0  0  0  0  0  0
   12.8166  -16.6219   24.8718 O   0  0  0  0  0  0  0  0  0  0  0  0
   13.6983  -16.9293   19.6903 O   0  0  0  0  0  0  0  0  0  0  0  0
   11.9450  -18.5225   25.7796 N   0  0  0  0  0  0  0  0  0  0  0  0
   12.6050  -18.3412   27.0372 C   0  0  0  0  0  0  0  0  0  0  0  0
   12.2134  -19.3118   28.0779 C   0  0  0  0  0  0  0  0  0  0  0  0
   12.8038  -19.1627   29.3384 O   0  0  0  0  0  0  0  0  0  0  0  0
   11.4108  -20.2461   27.9400 O   0  0  0  0  0  0  0  0  0  0  0  0
  2  1  1  1
  2  3  1  0
  2 13  1  0
  3  4  1  0
  4  5  2  0
  5  6  1  0
  7  8  2  0
  7  6  1  0
  9  8  1  0
 10  9  2  0
 11 10  1  0
 11 12  2  0
 12  4  1  0
 12  7  1  0
 13 15  1  0
 13 14  2  0
 15 16  1  0
 16 17  1  6
 18 17  1  0
 19 20  2  0
 19 18  1  0
 21 16  1  0
 21 22  2  0
 23 19  1  0
 24 21  1  0
 25 24  1  0
 26 25  1  0
 27 26  1  0
 28 26  2  0
M  END
$$$$
