WEG.pdb
     RDKit          3D

 28 29  0  0  1  0  0  0  0  0999 V2000
    6.9300  -17.9960   24.5131 N   0  0  0  0  0  0  0  0  0  0  0  0
    7.8533  -16.9884   24.0674 C   0  0  1  0  0  0  0  0  0  0  0  0
    8.2690  -16.0542   25.1695 C   0  0  0  0  0  0  0  0  0  0  0  0
    7.1920  -15.1404   25.6111 C   0  0  0  0  0  0  0  0  0  0  0  0
    5.9371  -15.4657   26.0968 C   0  0  0  0  0  0  0  0  0  0  0  0
    5.2627  -14.3244   26.3551 N   0  0  0  0  0  0  0  0  0  0  0  0
    6.0388  -13.2649   26.0535 C   0  0  0  0  0  0  0  0  0  0  0  0
    5.8091  -11.9177   26.1458 C   0  0  0  0  0  0  0  0  0  0  0  0
    6.7740  -11.0286   25.7789 C   0  0  0  0  0  0  0  0  0  0  0  0
    7.9817  -11.4841   25.3152 C   0  0  0  0  0  0  0  0  0  0  0  0
    8.2065  -12.8289   25.2245 C   0  0  0  0  0  0  0  0  0  0  0  0
    7.2543  -13.7657   25.5852 C   0  0  0  0  0  0  0  0  0  0  0  0
    9.0445  -17.5831   23.3757 C   0  0  0  0  0  0  0  0  0  0  0  0
    9.6971  -18.5328   23.9227 O   0  0  0  0  0  0  0  0  0  0  0  0
    9.4130  -17.0599   22.1095 N   0  0  0  0  0  0  0  0  0  0  0  0
   10.7298  -17.4275   21.5479 C   0  0  1  0  0  0  0  0  0  0  0  0
   10.6978  -17.1460   20.0711 C   0  0  0  0  0  0  0  0  0  0  0  0
   10.1978  -18.2263   19.1991 C   0  0  0  0  0  0  0  0  0  0  0  0
   10.1900  -17.7174   17.7809 C   0  0  0  0  0  0  0  0  0  0  0  0
   11.0269  -18.0997   16.9400 O   0  0  0  0  0  0  0  0  0  0  0  0
   11.7831  -16.5741   22.1431 C   0  0  0  0  0  0  0  0  0  0  0  0
   11.5891  -15.3413   22.2596 O   0  0  0  0  0  0  0  0  0  0  0  0
    9.2367  -16.8061   17.3953 O   0  0  0  0  0  0  0  0  0  0  0  0
   13.0442  -17.0604   22.6111 N   0  0  0  0  0  0  0  0  0  0  0  0
   14.0563  -16.2176   23.1728 C   0  0  0  0  0  0  0  0  0  0  0  0
   15.3184  -16.9113   23.4959 C   0  0  0  0  0  0  0  0  0  0  0  0
   16.3657  -16.1248   23.9902 O   0  0  0  0  0  0  0  0  0  0  0  0
   15.5375  -18.1247   23.3704 O   0  0  0  0  0  0  0  0  0  0  0  0
  2  1  1  1
  2  3  1  0
  2 13  1  0
  3  4  1  0
  4  5  2  0
  5  6  1  0
  7  8  2  0
  7  6  1  0
  9  8  1  0
 10  9  2  0
 11 10  1  0
 11 12  2  0
 12  4  1  0
 12  7  1  0
 13 15  1  0
 13 14  2  0
 15 16  1  0
 16 17  1  6
 18 17  1  0
 19 20  2  0
 19 18  1  0
 21 16  1  0
 21 22  2  0
 23 19  1  0
 24 21  1  0
 25 24  1  0
 26 25  1  0
 27 26  1  0
 28 26  2  0
M  END
$$$$
