WEG.pdb
     RDKit          3D

 28 29  0  0  1  0  0  0  0  0999 V2000
    7.4226  -18.0041   24.9549 N   0  0  0  0  0  0  0  0  0  0  0  0
    8.3254  -16.9992   24.4635 C   0  0  1  0  0  0  0  0  0  0  0  0
    8.6728  -15.9722   25.5051 C   0  0  0  0  0  0  0  0  0  0  0  0
    7.5387  -15.0979   25.8784 C   0  0  0  0  0  0  0  0  0  0  0  0
    6.2599  -15.4679   26.2582 C   0  0  0  0  0  0  0  0  0  0  0  0
    5.5346  -14.3513   26.4846 N   0  0  0  0  0  0  0  0  0  0  0  0
    6.3005  -13.2647   26.2649 C   0  0  0  0  0  0  0  0  0  0  0  0
    6.0253  -11.9266   26.3646 C   0  0  0  0  0  0  0  0  0  0  0  0
    6.9896  -11.0037   26.0913 C   0  0  0  0  0  0  0  0  0  0  0  0
    8.2424  -11.4159   25.7149 C   0  0  0  0  0  0  0  0  0  0  0  0
    8.5125  -12.7517   25.6164 C   0  0  0  0  0  0  0  0  0  0  0  0
    7.5628  -13.7218   25.8837 C   0  0  0  0  0  0  0  0  0  0  0  0
    9.5581  -17.5995   23.8544 C   0  0  0  0  0  0  0  0  0  0  0  0
   10.2476  -18.4514   24.5071 O   0  0  0  0  0  0  0  0  0  0  0  0
    9.9234  -17.1928   22.5453 N   0  0  0  0  0  0  0  0  0  0  0  0
   11.2622  -17.5599   22.0380 C   0  0  1  0  0  0  0  0  0  0  0  0
   11.2598  -17.3698   20.5463 C   0  0  0  0  0  0  0  0  0  0  0  0
   12.4180  -17.9061   19.8058 C   0  0  0  0  0  0  0  0  0  0  0  0
   12.2172  -17.6077   18.3426 C   0  0  0  0  0  0  0  0  0  0  0  0
   12.0053  -16.4507   17.9301 O   0  0  0  0  0  0  0  0  0  0  0  0
   12.2796  -16.6451   22.6037 C   0  0  0  0  0  0  0  0  0  0  0  0
   11.9867  -15.4437   22.8085 O   0  0  0  0  0  0  0  0  0  0  0  0
   12.2676  -18.6340   17.4305 O   0  0  0  0  0  0  0  0  0  0  0  0
   13.6120  -17.0360   22.9466 N   0  0  0  0  0  0  0  0  0  0  0  0
   14.5884  -16.1326   23.4762 C   0  0  0  0  0  0  0  0  0  0  0  0
   15.8800  -16.7605   23.8168 C   0  0  0  0  0  0  0  0  0  0  0  0
   16.8750  -15.9232   24.3351 O   0  0  0  0  0  0  0  0  0  0  0  0
   16.1658  -17.9594   23.6868 O   0  0  0  0  0  0  0  0  0  0  0  0
  2  1  1  1
  2  3  1  0
  2 13  1  0
  3  4  1  0
  4  5  2  0
  5  6  1  0
  7  8  2  0
  7  6  1  0
  9  8  1  0
 10  9  2  0
 11 10  1  0
 11 12  2  0
 12  4  1  0
 12  7  1  0
 13 15  1  0
 13 14  2  0
 15 16  1  0
 16 17  1  6
 18 17  1  0
 19 20  2  0
 19 18  1  0
 21 16  1  0
 21 22  2  0
 23 19  1  0
 24 21  1  0
 25 24  1  0
 26 25  1  0
 27 26  1  0
 28 26  2  0
M  END
$$$$
