TRD.pdb
     RDKit          3D

 27 26  0  0  1  0  0  0  0  0999 V2000
    9.1639  -20.4913   21.4171 C   0  0  0  0  0  0  0  0  0  0  0  0
    9.8231  -20.4470   20.0681 C   0  0  1  0  0  0  0  0  0  0  0  0
    9.3651  -21.5177   19.3108 O   0  0  0  0  0  0  0  0  0  0  0  0
    9.4963  -19.1701   19.3386 C   0  0  2  0  0  0  0  0  0  0  0  0
    9.9648  -19.2443   17.9747 N   0  0  0  0  0  0  0  0  0  0  0  0
   10.0708  -17.9982   20.0707 C   0  0  0  0  0  0  0  0  0  0  0  0
   11.3141  -17.9001   20.0303 O   0  0  0  0  0  0  0  0  0  0  0  0
    7.3926  -14.6816   17.1562 N   0  0  0  0  0  0  0  0  0  0  0  0
    7.5688  -13.4404   17.8569 C   0  0  0  0  0  0  0  0  0  0  0  0
    8.4935  -12.6277   17.5141 N   0  0  0  0  0  0  0  0  0  0  0  0
    6.7286  -13.0792   18.9414 N   0  0  0  0  0  0  0  0  0  0  0  0
    7.0910  -13.4332   20.2806 C   0  0  0  0  0  0  0  0  0  0  0  0
    8.1766  -14.5016   20.1968 C   0  0  0  0  0  0  0  0  0  0  0  0
    8.6173  -14.8870   21.6029 C   0  0  0  0  0  0  0  0  0  0  0  0
    9.6508  -15.9479   21.4995 C   0  0  2  0  0  0  0  0  0  0  0  0
    9.2418  -17.0892   20.7461 N   0  0  0  0  0  0  0  0  0  0  0  0
   10.2589  -16.2481   22.8240 C   0  0  0  0  0  0  0  0  0  0  0  0
    9.6592  -16.6997   23.8191 O   0  0  0  0  0  0  0  0  0  0  0  0
    8.7545  -11.7634   17.9881 N   0  0  0  0  0  0  0  0  0  0  0  0
   11.6527  -16.0023   22.9812 C   0  0  2  0  0  0  0  0  0  0  0  0
   12.4560  -16.8205   23.9082 C   0  0  0  0  0  0  0  0  0  0  0  0
   12.2333  -18.2429   23.4746 C   0  0  0  0  0  0  0  0  0  0  0  0
   13.0032  -19.2366   24.2540 O   0  0  0  0  0  0  0  0  0  0  0  0
   12.9985  -19.1943   25.5038 C   0  0  0  0  0  0  0  0  0  0  0  0
   13.8724  -16.4073   23.8335 O   0  0  0  0  0  0  0  0  0  0  0  0
   14.6926  -16.3828   24.9432 O   0  0  0  0  0  0  0  0  0  0  0  0
   13.7404  -20.2278   23.6320 O   0  0  0  0  0  0  0  0  0  0  0  0
  2  1  1  1
  2  4  1  0
  3  2  1  0
  4  5  1  6
  6  4  1  0
  6 16  1  0
  7  6  2  0
  8  9  1  0
  9 10  2  0
 11 12  1  0
 11  9  1  0
 13 14  1  0
 13 12  1  0
 15 16  1  0
 15 14  1  1
 17 15  1  0
 18 17  2  0
 19 17  1  0
 20 24  1  0
 20 19  1  0
 20 21  1  1
 22 21  1  0
 23 22  2  0
 24 25  1  0
 26 22  1  0
 27 24  2  0
M  END
$$$$
