TRD.pdb
     RDKit          3D

 27 26  0  0  1  0  0  0  0  0999 V2000
    7.5255  -19.2754   17.8304 C   0  0  0  0  0  0  0  0  0  0  0  0
    8.0330  -18.5942   19.0693 C   0  0  1  0  0  0  0  0  0  0  0  0
    9.0130  -19.3904   19.6482 O   0  0  0  0  0  0  0  0  0  0  0  0
    8.6345  -17.2505   18.7502 C   0  0  2  0  0  0  0  0  0  0  0  0
    9.7068  -17.4014   17.7948 N   0  0  0  0  0  0  0  0  0  0  0  0
    9.0883  -16.5784   20.0079 C   0  0  0  0  0  0  0  0  0  0  0  0
   10.3002  -16.7080   20.2756 O   0  0  0  0  0  0  0  0  0  0  0  0
    5.2663  -12.7550   26.8763 N   0  0  0  0  0  0  0  0  0  0  0  0
    6.5146  -12.0560   26.7512 C   0  0  0  0  0  0  0  0  0  0  0  0
    6.9361  -11.3071   27.6970 N   0  0  0  0  0  0  0  0  0  0  0  0
    7.3135  -12.1746   25.5849 N   0  0  0  0  0  0  0  0  0  0  0  0
    6.7872  -12.8098   24.4146 C   0  0  0  0  0  0  0  0  0  0  0  0
    7.8274  -13.8141   23.9283 C   0  0  0  0  0  0  0  0  0  0  0  0
    7.3756  -14.4082   22.6006 C   0  0  0  0  0  0  0  0  0  0  0  0
    8.4297  -15.3340   22.1148 C   0  0  2  0  0  0  0  0  0  0  0  0
    8.1887  -15.8587   20.8094 N   0  0  0  0  0  0  0  0  0  0  0  0
    8.7867  -16.3443   23.1474 C   0  0  0  0  0  0  0  0  0  0  0  0
    8.0925  -17.3232   23.4843 O   0  0  0  0  0  0  0  0  0  0  0  0
    7.7829  -10.7389   27.6958 N   0  0  0  0  0  0  0  0  0  0  0  0
   10.0333  -16.1900   23.8183 C   0  0  2  0  0  0  0  0  0  0  0  0
   10.4488  -17.1535   24.8542 C   0  0  0  0  0  0  0  0  0  0  0  0
   11.9487  -17.2087   24.7640 C   0  0  0  0  0  0  0  0  0  0  0  0
   12.4534  -17.9035   23.5598 O   0  0  0  0  0  0  0  0  0  0  0  0
   11.6530  -18.4423   22.7642 C   0  0  0  0  0  0  0  0  0  0  0  0
    9.9643  -16.7011   26.1745 O   0  0  0  0  0  0  0  0  0  0  0  0
    9.3942  -15.4587   26.3645 O   0  0  0  0  0  0  0  0  0  0  0  0
   13.8063  -17.9765   23.2824 O   0  0  0  0  0  0  0  0  0  0  0  0
  2  1  1  6
  2  4  1  0
  3  2  1  0
  4  5  1  6
  6  4  1  0
  6 16  1  0
  7  6  2  0
  8  9  1  0
  9 10  2  0
 11 12  1  0
 11  9  1  0
 13 14  1  0
 13 12  1  0
 15 16  1  0
 15 14  1  1
 17 15  1  0
 18 17  2  0
 19 17  1  0
 20 24  1  0
 20 19  1  0
 20 21  1  6
 22 21  1  0
 23 22  2  0
 24 25  1  0
 26 22  1  0
 27 24  2  0
M  END
$$$$
