TRD.pdb
     RDKit          3D

 27 26  0  0  1  0  0  0  0  0999 V2000
   10.3311  -12.4874   19.2959 C   0  0  0  0  0  0  0  0  0  0  0  0
    8.8484  -12.3571   19.4981 C   0  0  1  0  0  0  0  0  0  0  0  0
    8.3772  -11.3221   18.7003 O   0  0  0  0  0  0  0  0  0  0  0  0
    8.1282  -13.6234   19.1142 C   0  0  2  0  0  0  0  0  0  0  0  0
    6.7019  -13.4440   19.2519 N   0  0  0  0  0  0  0  0  0  0  0  0
    8.6351  -14.7708   19.9302 C   0  0  0  0  0  0  0  0  0  0  0  0
    8.0992  -14.9089   21.0487 O   0  0  0  0  0  0  0  0  0  0  0  0
    9.2677  -21.8498   18.2836 N   0  0  0  0  0  0  0  0  0  0  0  0
    8.9861  -21.2611   17.0043 C   0  0  0  0  0  0  0  0  0  0  0  0
    8.1328  -21.7964   16.2178 N   0  0  0  0  0  0  0  0  0  0  0  0
    9.6390  -20.0763   16.5770 N   0  0  0  0  0  0  0  0  0  0  0  0
   10.6158  -19.4510   17.4166 C   0  0  0  0  0  0  0  0  0  0  0  0
    9.8857  -18.4484   18.3047 C   0  0  0  0  0  0  0  0  0  0  0  0
   10.8991  -17.6932   19.1549 C   0  0  0  0  0  0  0  0  0  0  0  0
   10.1635  -16.7870   20.0723 C   0  0  2  0  0  0  0  0  0  0  0  0
    9.6441  -15.6159   19.4430 N   0  0  0  0  0  0  0  0  0  0  0  0
   10.9251  -16.5463   21.3279 C   0  0  0  0  0  0  0  0  0  0  0  0
   11.7636  -15.6429   21.5135 O   0  0  0  0  0  0  0  0  0  0  0  0
    7.6580  -22.6895   16.3473 N   0  0  0  0  0  0  0  0  0  0  0  0
   10.6815  -17.4205   22.4253 C   0  0  2  0  0  0  0  0  0  0  0  0
   11.3540  -17.2013   23.7190 C   0  0  0  0  0  0  0  0  0  0  0  0
   10.5191  -17.9391   24.7287 C   0  0  0  0  0  0  0  0  0  0  0  0
   11.1136  -17.9848   26.0822 O   0  0  0  0  0  0  0  0  0  0  0  0
   11.2377  -16.9342   26.7491 C   0  0  0  0  0  0  0  0  0  0  0  0
   12.7442  -17.6957   23.6448 O   0  0  0  0  0  0  0  0  0  0  0  0
   13.7127  -17.3110   24.5497 O   0  0  0  0  0  0  0  0  0  0  0  0
   11.5435  -19.1742   26.6420 O   0  0  0  0  0  0  0  0  0  0  0  0
  2  1  1  6
  2  4  1  0
  3  2  1  0
  4  5  1  1
  6  4  1  0
  6 16  1  0
  7  6  2  0
  8  9  1  0
  9 10  2  0
 11 12  1  0
 11  9  1  0
 13 14  1  0
 13 12  1  0
 15 16  1  0
 15 14  1  6
 17 15  1  0
 18 17  2  0
 19 17  1  0
 20 24  1  0
 20 19  1  0
 20 21  1  1
 22 21  1  0
 23 22  2  0
 24 25  1  0
 26 22  1  0
 27 24  2  0
M  END
$$$$
