TRD.pdb
     RDKit          3D

 27 26  0  0  1  0  0  0  0  0999 V2000
    7.2525  -14.0572   17.2154 C   0  0  0  0  0  0  0  0  0  0  0  0
    7.8870  -14.5245   18.4942 C   0  0  1  0  0  0  0  0  0  0  0  0
    9.2473  -14.7058   18.2787 O   0  0  0  0  0  0  0  0  0  0  0  0
    7.7076  -13.5146   19.5975 C   0  0  2  0  0  0  0  0  0  0  0  0
    8.2132  -12.2282   19.1794 N   0  0  0  0  0  0  0  0  0  0  0  0
    8.3649  -14.0002   20.8511 C   0  0  0  0  0  0  0  0  0  0  0  0
    9.5518  -13.6464   21.0036 O   0  0  0  0  0  0  0  0  0  0  0  0
    5.8979  -20.3277   26.8214 N   0  0  0  0  0  0  0  0  0  0  0  0
    7.0865  -19.6644   27.2796 C   0  0  0  0  0  0  0  0  0  0  0  0
    7.6170  -19.9833   28.3977 N   0  0  0  0  0  0  0  0  0  0  0  0
    7.7051  -18.6442   26.5121 N   0  0  0  0  0  0  0  0  0  0  0  0
    7.0111  -18.0551   25.4069 C   0  0  0  0  0  0  0  0  0  0  0  0
    7.9379  -17.0176   24.7812 C   0  0  0  0  0  0  0  0  0  0  0  0
    7.2310  -16.3482   23.6098 C   0  0  0  0  0  0  0  0  0  0  0  0
    8.2154  -15.5083   22.8820 C   0  0  2  0  0  0  0  0  0  0  0  0
    7.6676  -14.7966   21.7726 N   0  0  0  0  0  0  0  0  0  0  0  0
    9.4680  -16.2593   22.5966 C   0  0  0  0  0  0  0  0  0  0  0  0
    9.6043  -17.1576   21.7433 O   0  0  0  0  0  0  0  0  0  0  0  0
    8.4546  -19.5779   28.8146 N   0  0  0  0  0  0  0  0  0  0  0  0
   10.6235  -15.9299   23.3608 C   0  0  2  0  0  0  0  0  0  0  0  0
   11.8711  -16.6987   23.1983 C   0  0  0  0  0  0  0  0  0  0  0  0
   12.9153  -15.6835   22.8242 C   0  0  0  0  0  0  0  0  0  0  0  0
   14.2707  -16.2502   22.6528 O   0  0  0  0  0  0  0  0  0  0  0  0
   14.4431  -17.4882   22.6930 C   0  0  0  0  0  0  0  0  0  0  0  0
   12.1807  -17.4121   24.4544 O   0  0  0  0  0  0  0  0  0  0  0  0
   13.0123  -18.5130   24.4912 O   0  0  0  0  0  0  0  0  0  0  0  0
   15.3714  -15.4389   22.4459 O   0  0  0  0  0  0  0  0  0  0  0  0
  2  1  1  6
  2  4  1  0
  3  2  1  0
  4  5  1  6
  6  4  1  0
  6 16  1  0
  7  6  2  0
  8  9  1  0
  9 10  2  0
 11 12  1  0
 11  9  1  0
 13 14  1  0
 13 12  1  0
 15 16  1  0
 15 14  1  6
 17 15  1  0
 18 17  2  0
 19 17  1  0
 20 24  1  0
 20 19  1  0
 20 21  1  1
 22 21  1  0
 23 22  2  0
 24 25  1  0
 26 22  1  0
 27 24  2  0
M  END
$$$$
