TRD.pdb
     RDKit          3D

 27 26  0  0  1  0  0  0  0  0999 V2000
    7.7749  -14.1719   15.1543 C   0  0  0  0  0  0  0  0  0  0  0  0
    8.4428  -14.6649   16.4062 C   0  0  1  0  0  0  0  0  0  0  0  0
    9.6920  -14.0668   16.5122 O   0  0  0  0  0  0  0  0  0  0  0  0
    7.6392  -14.3157   17.6315 C   0  0  2  0  0  0  0  0  0  0  0  0
    7.4623  -12.8850   17.7175 N   0  0  0  0  0  0  0  0  0  0  0  0
    8.2939  -14.8788   18.8537 C   0  0  0  0  0  0  0  0  0  0  0  0
    8.9164  -14.0547   19.5542 O   0  0  0  0  0  0  0  0  0  0  0  0
    4.9058  -18.6011   22.5688 N   0  0  0  0  0  0  0  0  0  0  0  0
    4.3199  -19.1341   21.3708 C   0  0  0  0  0  0  0  0  0  0  0  0
    3.0805  -18.9514   21.1182 N   0  0  0  0  0  0  0  0  0  0  0  0
    5.0915  -19.8724   20.4369 N   0  0  0  0  0  0  0  0  0  0  0  0
    6.5210  -19.8612   20.5170 C   0  0  0  0  0  0  0  0  0  0  0  0
    6.9794  -18.4140   20.3678 C   0  0  0  0  0  0  0  0  0  0  0  0
    8.5015  -18.3655   20.3382 C   0  0  0  0  0  0  0  0  0  0  0  0
    8.9255  -16.9533   20.1646 C   0  0  2  0  0  0  0  0  0  0  0  0
    8.1957  -16.2440   19.1638 N   0  0  0  0  0  0  0  0  0  0  0  0
   10.4060  -16.8357   20.0718 C   0  0  0  0  0  0  0  0  0  0  0  0
   11.0926  -17.0266   19.0491 O   0  0  0  0  0  0  0  0  0  0  0  0
    2.5689  -19.2784   20.2990 N   0  0  0  0  0  0  0  0  0  0  0  0
   11.1143  -16.4712   21.2522 C   0  0  1  0  0  0  0  0  0  0  0  0
   12.5883  -16.4378   21.2589 C   0  0  0  0  0  0  0  0  0  0  0  0
   12.9527  -15.0070   20.9747 C   0  0  0  0  0  0  0  0  0  0  0  0
   14.4020  -14.7823   20.7831 O   0  0  0  0  0  0  0  0  0  0  0  0
   15.2014  -15.7409   20.8603 C   0  0  0  0  0  0  0  0  0  0  0  0
   13.0888  -16.9144   22.5647 O   0  0  0  0  0  0  0  0  0  0  0  0
   12.3193  -16.8710   23.7095 O   0  0  0  0  0  0  0  0  0  0  0  0
   14.9082  -13.5231   20.5167 O   0  0  0  0  0  0  0  0  0  0  0  0
  2  1  1  6
  2  4  1  0
  3  2  1  0
  4  5  1  1
  6  4  1  0
  6 16  1  0
  7  6  2  0
  8  9  1  0
  9 10  2  0
 11 12  1  0
 11  9  1  0
 13 14  1  0
 13 12  1  0
 15 16  1  0
 15 14  1  6
 17 15  1  0
 18 17  2  0
 19 17  1  0
 20 24  1  0
 20 19  1  0
 20 21  1  1
 22 21  1  0
 23 22  2  0
 24 25  1  0
 26 22  1  0
 27 24  2  0
M  END
$$$$
