VQT.pdb
     RDKit          3D

 24 23  0  0  1  0  0  0  0  0999 V2000
    8.5708  -12.6197   20.4835 C   0  0  0  0  0  0  0  0  0  0  0  0
    7.8753  -13.4260   19.4189 C   0  0  1  0  0  0  0  0  0  0  0  0
    7.4839  -12.5504   18.2828 C   0  0  0  0  0  0  0  0  0  0  0  0
    8.5539  -14.7016   19.0707 C   0  0  2  0  0  0  0  0  0  0  0  0
    7.6652  -15.4014   18.1281 N   0  0  0  0  0  0  0  0  0  0  0  0
    8.8481  -15.6202   20.1589 C   0  0  0  0  0  0  0  0  0  0  0  0
    7.9220  -16.3587   20.6507 O   0  0  0  0  0  0  0  0  0  0  0  0
   14.0236  -19.2477   23.8965 N   0  0  0  0  0  0  0  0  0  0  0  0
   13.2818  -18.9761   22.6990 C   0  0  0  0  0  0  0  0  0  0  0  0
   13.7990  -19.3900   21.6370 O   0  0  0  0  0  0  0  0  0  0  0  0
   12.0136  -18.2569   22.8161 C   0  0  0  0  0  0  0  0  0  0  0  0
   11.6919  -17.3238   21.6913 C   0  0  0  0  0  0  0  0  0  0  0  0
   10.3193  -16.7237   21.8781 C   0  0  2  0  0  0  0  0  0  0  0  0
   10.1237  -15.7988   20.7696 N   0  0  0  0  0  0  0  0  0  0  0  0
   10.1643  -16.0890   23.2019 C   0  0  0  0  0  0  0  0  0  0  0  0
   10.8436  -15.0725   23.4942 O   0  0  0  0  0  0  0  0  0  0  0  0
    7.5107  -14.3330   24.8728 C   0  0  0  0  0  0  0  0  0  0  0  0
    7.7055  -15.5804   25.7052 C   0  0  1  0  0  0  0  0  0  0  0  0
    6.7586  -16.5098   25.2732 O   0  0  0  0  0  0  0  0  0  0  0  0
    9.1093  -16.0792   25.4646 C   0  0  2  0  0  0  0  0  0  0  0  0
    9.2461  -16.6375   24.1312 N   0  0  0  0  0  0  0  0  0  0  0  0
    9.4126  -17.1143   26.4812 C   0  0  0  0  0  0  0  0  0  0  0  0
    9.5941  -18.3034   26.1158 O   0  0  0  0  0  0  0  0  0  0  0  0
    9.4998  -16.7999   27.8207 O   0  0  0  0  0  0  0  0  0  0  0  0
  2  1  1  1
  2  3  1  0
  4  2  1  0
  4  5  1  6
  6  4  1  0
  6  7  2  0
  8  9  1  0
  9 11  1  0
 10  9  2  0
 11 12  1  0
 13 12  1  1
 13 14  1  0
 14  6  1  0
 15 13  1  0
 16 15  2  0
 18 17  1  6
 18 20  1  0
 19 18  1  0
 20 22  1  0
 20 21  1  6
 21 15  1  0
 22 24  1  0
 23 22  2  0
M  END
$$$$
