VQT.pdb
     RDKit          3D

 24 23  0  0  1  0  0  0  0  0999 V2000
    8.0373  -11.8244   25.9212 C   0  0  0  0  0  0  0  0  0  0  0  0
    6.8929  -12.5323   26.5969 C   0  0  1  0  0  0  0  0  0  0  0  0
    6.3231  -11.6795   27.6733 C   0  0  0  0  0  0  0  0  0  0  0  0
    5.9216  -13.1620   25.6647 C   0  0  2  0  0  0  0  0  0  0  0  0
    4.9330  -13.8600   26.5035 N   0  0  0  0  0  0  0  0  0  0  0  0
    6.4424  -14.1258   24.7084 C   0  0  0  0  0  0  0  0  0  0  0  0
    5.6523  -14.7153   23.8880 O   0  0  0  0  0  0  0  0  0  0  0  0
    9.1774  -13.6276   18.9942 N   0  0  0  0  0  0  0  0  0  0  0  0
    8.1150  -14.2670   19.7157 C   0  0  0  0  0  0  0  0  0  0  0  0
    6.9747  -14.1540   19.2120 O   0  0  0  0  0  0  0  0  0  0  0  0
    8.4448  -14.9812   20.9488 C   0  0  0  0  0  0  0  0  0  0  0  0
    7.8923  -14.3897   22.2075 C   0  0  0  0  0  0  0  0  0  0  0  0
    8.2978  -15.2174   23.4031 C   0  0  2  0  0  0  0  0  0  0  0  0
    7.8102  -14.5054   24.5768 N   0  0  0  0  0  0  0  0  0  0  0  0
    9.7515  -15.4720   23.4372 C   0  0  0  0  0  0  0  0  0  0  0  0
   10.5590  -14.5113   23.3656 O   0  0  0  0  0  0  0  0  0  0  0  0
   10.6274  -17.4360   26.4785 C   0  0  0  0  0  0  0  0  0  0  0  0
   11.2882  -18.1259   25.3062 C   0  0  1  0  0  0  0  0  0  0  0  0
   10.4283  -19.1457   24.8968 O   0  0  0  0  0  0  0  0  0  0  0  0
   11.4767  -17.1000   24.2157 C   0  0  2  0  0  0  0  0  0  0  0  0
   10.2202  -16.8042   23.5510 N   0  0  0  0  0  0  0  0  0  0  0  0
   12.4528  -17.6382   23.2386 C   0  0  0  0  0  0  0  0  0  0  0  0
   12.0942  -17.8270   22.0485 O   0  0  0  0  0  0  0  0  0  0  0  0
   13.7471  -17.9364   23.6081 O   0  0  0  0  0  0  0  0  0  0  0  0
  2  1  1  6
  2  3  1  0
  4  2  1  0
  4  5  1  1
  6  4  1  0
  6  7  2  0
  8  9  1  0
  9 11  1  0
 10  9  2  0
 11 12  1  0
 13 12  1  6
 13 14  1  0
 14  6  1  0
 15 13  1  0
 16 15  2  0
 18 17  1  1
 18 20  1  0
 19 18  1  0
 20 22  1  0
 20 21  1  6
 21 15  1  0
 22 24  1  0
 23 22  2  0
M  END
$$$$
