VQT.pdb
     RDKit          3D

 24 23  0  0  1  0  0  0  0  0999 V2000
    8.6162  -12.7344   20.6852 C   0  0  0  0  0  0  0  0  0  0  0  0
    8.0077  -13.4908   19.5341 C   0  0  1  0  0  0  0  0  0  0  0  0
    7.4412  -12.5440   18.5374 C   0  0  0  0  0  0  0  0  0  0  0  0
    8.8569  -14.5874   19.0001 C   0  0  2  0  0  0  0  0  0  0  0  0
    8.0470  -15.2849   17.9874 N   0  0  0  0  0  0  0  0  0  0  0  0
    9.3305  -15.5859   19.9453 C   0  0  0  0  0  0  0  0  0  0  0  0
    8.5379  -16.4984   20.3742 O   0  0  0  0  0  0  0  0  0  0  0  0
   12.7014  -19.7096   20.6767 N   0  0  0  0  0  0  0  0  0  0  0  0
   13.0489  -19.3102   22.0100 C   0  0  0  0  0  0  0  0  0  0  0  0
   13.4171  -20.2324   22.7721 O   0  0  0  0  0  0  0  0  0  0  0  0
   12.9478  -17.8934   22.3589 C   0  0  0  0  0  0  0  0  0  0  0  0
   12.4501  -16.9926   21.2725 C   0  0  0  0  0  0  0  0  0  0  0  0
   11.0060  -16.6235   21.5119 C   0  0  2  0  0  0  0  0  0  0  0  0
   10.6522  -15.6647   20.4736 N   0  0  0  0  0  0  0  0  0  0  0  0
   10.7806  -16.1132   22.8787 C   0  0  0  0  0  0  0  0  0  0  0  0
   11.5237  -15.2117   23.3427 O   0  0  0  0  0  0  0  0  0  0  0  0
    7.5239  -14.8658   24.5122 C   0  0  0  0  0  0  0  0  0  0  0  0
    8.0250  -16.0517   25.3056 C   0  0  1  0  0  0  0  0  0  0  0  0
    7.3056  -17.1654   24.8706 O   0  0  0  0  0  0  0  0  0  0  0  0
    9.4984  -16.2073   25.0187 C   0  0  2  0  0  0  0  0  0  0  0  0
    9.7231  -16.6497   23.6541 N   0  0  0  0  0  0  0  0  0  0  0  0
   10.0523  -17.1990   25.9708 C   0  0  0  0  0  0  0  0  0  0  0  0
   10.5202  -18.2805   25.5326 O   0  0  0  0  0  0  0  0  0  0  0  0
   10.0652  -16.9600   27.3285 O   0  0  0  0  0  0  0  0  0  0  0  0
  2  1  1  1
  2  3  1  0
  4  2  1  0
  4  5  1  6
  6  4  1  0
  6  7  2  0
  8  9  1  0
  9 11  1  0
 10  9  2  0
 11 12  1  0
 13 12  1  1
 13 14  1  0
 14  6  1  0
 15 13  1  0
 16 15  2  0
 18 17  1  6
 18 20  1  0
 19 18  1  0
 20 22  1  0
 20 21  1  6
 21 15  1  0
 22 24  1  0
 23 22  2  0
M  END
$$$$
