VQT.pdb
     RDKit          3D

 24 23  0  0  1  0  0  0  0  0999 V2000
    9.7657  -19.2290   14.5656 C   0  0  0  0  0  0  0  0  0  0  0  0
    9.9288  -18.0854   15.5315 C   0  0  1  0  0  0  0  0  0  0  0  0
    9.4111  -16.8270   14.9323 C   0  0  0  0  0  0  0  0  0  0  0  0
    9.4955  -18.3863   16.9210 C   0  0  2  0  0  0  0  0  0  0  0  0
    8.0701  -18.7469   16.8431 N   0  0  0  0  0  0  0  0  0  0  0  0
    9.6250  -17.3242   17.9058 C   0  0  0  0  0  0  0  0  0  0  0  0
   10.7854  -16.9148   18.2673 O   0  0  0  0  0  0  0  0  0  0  0  0
    8.7576  -11.8725   19.0332 N   0  0  0  0  0  0  0  0  0  0  0  0
    8.8391  -12.6350   20.2456 C   0  0  0  0  0  0  0  0  0  0  0  0
    9.8318  -12.3954   20.9695 O   0  0  0  0  0  0  0  0  0  0  0  0
    7.7809  -13.6043   20.5285 C   0  0  0  0  0  0  0  0  0  0  0  0
    7.6151  -14.6957   19.5183 C   0  0  0  0  0  0  0  0  0  0  0  0
    8.7668  -15.6686   19.5971 C   0  0  2  0  0  0  0  0  0  0  0  0
    8.5430  -16.6521   18.5459 N   0  0  0  0  0  0  0  0  0  0  0  0
    8.8982  -16.2688   20.9393 C   0  0  0  0  0  0  0  0  0  0  0  0
    7.8730  -16.6451   21.5619 O   0  0  0  0  0  0  0  0  0  0  0  0
   10.5497  -19.2809   21.8084 C   0  0  0  0  0  0  0  0  0  0  0  0
   11.2552  -18.2707   22.6853 C   0  0  1  0  0  0  0  0  0  0  0  0
   12.4582  -17.9534   22.0535 O   0  0  0  0  0  0  0  0  0  0  0  0
   10.3629  -17.0591   22.8002 C   0  0  2  0  0  0  0  0  0  0  0  0
   10.1862  -16.4137   21.5116 N   0  0  0  0  0  0  0  0  0  0  0  0
   10.9859  -16.1156   23.7586 C   0  0  0  0  0  0  0  0  0  0  0  0
   11.4095  -15.0064   23.3454 O   0  0  0  0  0  0  0  0  0  0  0  0
   11.1107  -16.4293   25.0953 O   0  0  0  0  0  0  0  0  0  0  0  0
  2  1  1  6
  2  3  1  0
  4  2  1  0
  4  5  1  6
  6  4  1  0
  6  7  2  0
  8  9  1  0
  9 11  1  0
 10  9  2  0
 11 12  1  0
 13 12  1  1
 13 14  1  0
 14  6  1  0
 15 13  1  0
 16 15  2  0
 18 17  1  6
 18 20  1  0
 19 18  1  0
 20 22  1  0
 20 21  1  6
 21 15  1  0
 22 24  1  0
 23 22  2  0
M  END
$$$$
