VQT.pdb
     RDKit          3D

 24 23  0  0  1  0  0  0  0  0999 V2000
    8.1971  -12.5389   20.3400 C   0  0  0  0  0  0  0  0  0  0  0  0
    7.8498  -13.6680   19.4064 C   0  0  1  0  0  0  0  0  0  0  0  0
    8.4223  -13.4158   18.0576 C   0  0  0  0  0  0  0  0  0  0  0  0
    8.0625  -15.0247   19.9748 C   0  0  2  0  0  0  0  0  0  0  0  0
    7.5460  -15.9783   18.9789 N   0  0  0  0  0  0  0  0  0  0  0  0
    7.4189  -15.3256   21.2436 C   0  0  0  0  0  0  0  0  0  0  0  0
    6.1495  -15.4996   21.3002 O   0  0  0  0  0  0  0  0  0  0  0  0
    7.2196  -19.7363   24.7577 N   0  0  0  0  0  0  0  0  0  0  0  0
    8.2478  -18.9135   25.3267 C   0  0  0  0  0  0  0  0  0  0  0  0
    9.0490  -19.4993   26.0894 O   0  0  0  0  0  0  0  0  0  0  0  0
    8.2744  -17.4938   24.9760 C   0  0  0  0  0  0  0  0  0  0  0  0
    7.2045  -17.0392   24.0336 C   0  0  0  0  0  0  0  0  0  0  0  0
    7.3430  -15.5631   23.7488 C   0  0  2  0  0  0  0  0  0  0  0  0
    8.0829  -15.4564   22.4983 N   0  0  0  0  0  0  0  0  0  0  0  0
    7.9782  -14.8373   24.8663 C   0  0  0  0  0  0  0  0  0  0  0  0
    9.2311  -14.8100   24.9658 O   0  0  0  0  0  0  0  0  0  0  0  0
    6.7447  -11.2416   26.0606 C   0  0  0  0  0  0  0  0  0  0  0  0
    6.8049  -12.2093   27.2212 C   0  0  1  0  0  0  0  0  0  0  0  0
    5.5090  -12.6864   27.4208 O   0  0  0  0  0  0  0  0  0  0  0  0
    7.7453  -13.3264   26.8400 C   0  0  2  0  0  0  0  0  0  0  0  0
    7.1622  -14.1769   25.8179 N   0  0  0  0  0  0  0  0  0  0  0  0
    8.0352  -14.1217   28.0567 C   0  0  0  0  0  0  0  0  0  0  0  0
    7.7040  -15.3340   28.0947 O   0  0  0  0  0  0  0  0  0  0  0  0
    8.6611  -13.5594   29.1488 O   0  0  0  0  0  0  0  0  0  0  0  0
  2  1  1  1
  2  3  1  0
  4  2  1  0
  4  5  1  6
  6  4  1  0
  6  7  2  0
  8  9  1  0
  9 11  1  0
 10  9  2  0
 11 12  1  0
 13 12  1  1
 13 14  1  0
 14  6  1  0
 15 13  1  0
 16 15  2  0
 18 17  1  6
 18 20  1  0
 19 18  1  0
 20 22  1  0
 20 21  1  6
 21 15  1  0
 22 24  1  0
 23 22  2  0
M  END
$$$$
