VQT.pdb
     RDKit          3D

 24 23  0  0  1  0  0  0  0  0999 V2000
    8.0258  -12.2675   18.3231 C   0  0  0  0  0  0  0  0  0  0  0  0
    8.3768  -13.2719   19.3885 C   0  0  1  0  0  0  0  0  0  0  0  0
    7.3340  -13.2848   20.4481 C   0  0  0  0  0  0  0  0  0  0  0  0
    8.8114  -14.5948   18.8686 C   0  0  2  0  0  0  0  0  0  0  0  0
    7.6925  -15.1133   18.0643 N   0  0  0  0  0  0  0  0  0  0  0  0
    9.1581  -15.6150   19.8451 C   0  0  0  0  0  0  0  0  0  0  0  0
    8.2699  -16.4416   20.2607 O   0  0  0  0  0  0  0  0  0  0  0  0
   14.4044  -18.8603   20.6873 N   0  0  0  0  0  0  0  0  0  0  0  0
   13.6687  -19.1666   21.8801 C   0  0  0  0  0  0  0  0  0  0  0  0
   14.2041  -19.9983   22.6471 O   0  0  0  0  0  0  0  0  0  0  0  0
   12.3864  -18.4969   22.0961 C   0  0  0  0  0  0  0  0  0  0  0  0
   12.0377  -17.4304   21.1060 C   0  0  0  0  0  0  0  0  0  0  0  0
   10.6928  -16.8266   21.4309 C   0  0  2  0  0  0  0  0  0  0  0  0
   10.4484  -15.8063   20.4201 N   0  0  0  0  0  0  0  0  0  0  0  0
   10.6345  -16.3062   22.8112 C   0  0  0  0  0  0  0  0  0  0  0  0
   11.4376  -15.4119   23.1794 O   0  0  0  0  0  0  0  0  0  0  0  0
    7.5825  -14.8962   24.5347 C   0  0  0  0  0  0  0  0  0  0  0  0
    8.0731  -16.0454   25.3865 C   0  0  1  0  0  0  0  0  0  0  0  0
    7.2915  -17.1549   25.0622 O   0  0  0  0  0  0  0  0  0  0  0  0
    9.5244  -16.2821   25.0472 C   0  0  2  0  0  0  0  0  0  0  0  0
    9.6683  -16.8249   23.7082 N   0  0  0  0  0  0  0  0  0  0  0  0
   10.0827  -17.2296   26.0409 C   0  0  0  0  0  0  0  0  0  0  0  0
   10.5343  -18.3365   25.6520 O   0  0  0  0  0  0  0  0  0  0  0  0
   10.1172  -16.9219   27.3844 O   0  0  0  0  0  0  0  0  0  0  0  0
  2  1  1  6
  2  3  1  0
  4  2  1  0
  4  5  1  1
  6  4  1  0
  6  7  2  0
  8  9  1  0
  9 11  1  0
 10  9  2  0
 11 12  1  0
 13 12  1  6
 13 14  1  0
 14  6  1  0
 15 13  1  0
 16 15  2  0
 18 17  1  6
 18 20  1  0
 19 18  1  0
 20 22  1  0
 20 21  1  6
 21 15  1  0
 22 24  1  0
 23 22  2  0
M  END
$$$$
