VQT.pdb
     RDKit          3D

 24 23  0  0  1  0  0  0  0  0999 V2000
    8.3221  -12.9207   18.4081 C   0  0  0  0  0  0  0  0  0  0  0  0
    8.2921  -13.3815   19.8413 C   0  0  1  0  0  0  0  0  0  0  0  0
    7.1467  -12.7611   20.5581 C   0  0  0  0  0  0  0  0  0  0  0  0
    8.4735  -14.8456   20.0214 C   0  0  2  0  0  0  0  0  0  0  0  0
    7.4134  -15.4960   19.2334 N   0  0  0  0  0  0  0  0  0  0  0  0
    8.3936  -15.3667   21.3767 C   0  0  0  0  0  0  0  0  0  0  0  0
    7.2723  -15.7720   21.8491 O   0  0  0  0  0  0  0  0  0  0  0  0
   12.0344  -19.2631   24.1428 N   0  0  0  0  0  0  0  0  0  0  0  0
   10.7213  -19.5243   23.6276 C   0  0  0  0  0  0  0  0  0  0  0  0
   10.4680  -20.7239   23.3755 O   0  0  0  0  0  0  0  0  0  0  0  0
    9.8098  -18.3950   23.4453 C   0  0  0  0  0  0  0  0  0  0  0  0
   10.3505  -17.0561   23.8380 C   0  0  0  0  0  0  0  0  0  0  0  0
    9.3052  -15.9850   23.6405 C   0  0  2  0  0  0  0  0  0  0  0  0
    9.4863  -15.4830   22.2848 N   0  0  0  0  0  0  0  0  0  0  0  0
    9.3877  -14.9296   24.6693 C   0  0  0  0  0  0  0  0  0  0  0  0
   10.4523  -14.2775   24.8159 O   0  0  0  0  0  0  0  0  0  0  0  0
    6.8513  -12.0051   25.5415 C   0  0  0  0  0  0  0  0  0  0  0  0
    6.9985  -12.9629   26.7025 C   0  0  1  0  0  0  0  0  0  0  0  0
    5.9299  -13.8574   26.6299 O   0  0  0  0  0  0  0  0  0  0  0  0
    8.3191  -13.6762   26.5454 C   0  0  2  0  0  0  0  0  0  0  0  0
    8.2586  -14.6640   25.4831 N   0  0  0  0  0  0  0  0  0  0  0  0
    8.6442  -14.3352   27.8326 C   0  0  0  0  0  0  0  0  0  0  0  0
    8.7949  -13.6330   28.8645 O   0  0  0  0  0  0  0  0  0  0  0  0
    8.7849  -15.7038   27.9221 O   0  0  0  0  0  0  0  0  0  0  0  0
  2  1  1  6
  2  3  1  0
  4  2  1  0
  4  5  1  6
  6  4  1  0
  6  7  2  0
  8  9  1  0
  9 11  1  0
 10  9  2  0
 11 12  1  0
 13 12  1  1
 13 14  1  0
 14  6  1  0
 15 13  1  0
 16 15  2  0
 18 17  1  6
 18 20  1  0
 19 18  1  0
 20 22  1  0
 20 21  1  6
 21 15  1  0
 22 24  1  0
 23 22  2  0
M  END
$$$$
