VQT.pdb
     RDKit          3D

 24 23  0  0  1  0  0  0  0  0999 V2000
    8.0953  -11.6627   25.5641 C   0  0  0  0  0  0  0  0  0  0  0  0
    6.7870  -12.1161   26.1560 C   0  0  1  0  0  0  0  0  0  0  0  0
    5.9090  -10.9462   26.4223 C   0  0  0  0  0  0  0  0  0  0  0  0
    6.1622  -13.2698   25.4578 C   0  0  2  0  0  0  0  0  0  0  0  0
    4.9934  -13.6601   26.2637 N   0  0  0  0  0  0  0  0  0  0  0  0
    6.9792  -14.4577   25.2679 C   0  0  0  0  0  0  0  0  0  0  0  0
    7.1279  -15.3004   26.2232 O   0  0  0  0  0  0  0  0  0  0  0  0
    9.3820  -17.1329   19.9847 N   0  0  0  0  0  0  0  0  0  0  0  0
   10.1913  -17.6752   21.0378 C   0  0  0  0  0  0  0  0  0  0  0  0
   11.0496  -18.5142   20.6828 O   0  0  0  0  0  0  0  0  0  0  0  0
    9.9529  -17.2128   22.4048 C   0  0  0  0  0  0  0  0  0  0  0  0
    8.8860  -16.1752   22.5609 C   0  0  0  0  0  0  0  0  0  0  0  0
    8.6088  -15.9175   24.0223 C   0  0  2  0  0  0  0  0  0  0  0  0
    7.6684  -14.8057   24.0696 N   0  0  0  0  0  0  0  0  0  0  0  0
    9.8458  -15.6683   24.7885 C   0  0  0  0  0  0  0  0  0  0  0  0
   10.6588  -14.7916   24.4003 O   0  0  0  0  0  0  0  0  0  0  0  0
   10.2702  -14.3696   28.0772 C   0  0  0  0  0  0  0  0  0  0  0  0
   10.8914  -15.7454   28.1681 C   0  0  1  0  0  0  0  0  0  0  0  0
    9.9224  -16.5946   28.7038 O   0  0  0  0  0  0  0  0  0  0  0  0
   11.2769  -16.1689   26.7719 C   0  0  2  0  0  0  0  0  0  0  0  0
   10.1018  -16.4253   25.9584 N   0  0  0  0  0  0  0  0  0  0  0  0
   12.1015  -17.3964   26.8725 C   0  0  0  0  0  0  0  0  0  0  0  0
   11.6695  -18.4715   26.3845 O   0  0  0  0  0  0  0  0  0  0  0  0
   13.3337  -17.3838   27.4907 O   0  0  0  0  0  0  0  0  0  0  0  0
  2  1  1  6
  2  3  1  0
  4  2  1  0
  4  5  1  1
  6  4  1  0
  6  7  2  0
  8  9  1  0
  9 11  1  0
 10  9  2  0
 11 12  1  0
 13 12  1  6
 13 14  1  0
 14  6  1  0
 15 13  1  0
 16 15  2  0
 18 17  1  6
 18 20  1  0
 19 18  1  0
 20 22  1  0
 20 21  1  6
 21 15  1  0
 22 24  1  0
 23 22  2  0
M  END
$$$$
