VQT.pdb
     RDKit          3D

 24 23  0  0  1  0  0  0  0  0999 V2000
    7.9308  -12.3752   20.7661 C   0  0  0  0  0  0  0  0  0  0  0  0
    7.5183  -13.4713   19.8196 C   0  0  1  0  0  0  0  0  0  0  0  0
    7.2624  -12.9135   18.4655 C   0  0  0  0  0  0  0  0  0  0  0  0
    8.3630  -14.6924   19.8858 C   0  0  2  0  0  0  0  0  0  0  0  0
    7.7887  -15.6478   18.9239 N   0  0  0  0  0  0  0  0  0  0  0  0
    8.4597  -15.3687   21.1695 C   0  0  0  0  0  0  0  0  0  0  0  0
    7.4887  -16.0899   21.5959 O   0  0  0  0  0  0  0  0  0  0  0  0
   12.5547  -18.9467   23.5883 N   0  0  0  0  0  0  0  0  0  0  0  0
   11.4971  -19.0844   22.6288 C   0  0  0  0  0  0  0  0  0  0  0  0
   11.5377  -20.1180   21.9240 O   0  0  0  0  0  0  0  0  0  0  0  0
   10.4838  -18.0321   22.5566 C   0  0  0  0  0  0  0  0  0  0  0  0
   10.7021  -16.8595   23.4603 C   0  0  0  0  0  0  0  0  0  0  0  0
    9.5337  -15.9068   23.3820 C   0  0  2  0  0  0  0  0  0  0  0  0
    9.5782  -15.3146   22.0517 N   0  0  0  0  0  0  0  0  0  0  0  0
    9.5570  -14.9062   24.4672 C   0  0  0  0  0  0  0  0  0  0  0  0
   10.4469  -14.0185   24.4836 O   0  0  0  0  0  0  0  0  0  0  0  0
    7.0138  -12.3545   25.5847 C   0  0  0  0  0  0  0  0  0  0  0  0
    7.1817  -13.3612   26.7007 C   0  0  1  0  0  0  0  0  0  0  0  0
    6.1742  -14.3139   26.5441 O   0  0  0  0  0  0  0  0  0  0  0  0
    8.5489  -13.9836   26.5565 C   0  0  2  0  0  0  0  0  0  0  0  0
    8.5699  -14.9601   25.4821 N   0  0  0  0  0  0  0  0  0  0  0  0
    8.8976  -14.6356   27.8411 C   0  0  0  0  0  0  0  0  0  0  0  0
    9.0295  -15.8852   27.8829 O   0  0  0  0  0  0  0  0  0  0  0  0
    9.0805  -13.8995   28.9924 O   0  0  0  0  0  0  0  0  0  0  0  0
  2  1  1  1
  2  3  1  0
  4  2  1  0
  4  5  1  6
  6  4  1  0
  6  7  2  0
  8  9  1  0
  9 11  1  0
 10  9  2  0
 11 12  1  0
 13 12  1  1
 13 14  1  0
 14  6  1  0
 15 13  1  0
 16 15  2  0
 18 17  1  6
 18 20  1  0
 19 18  1  0
 20 22  1  0
 20 21  1  6
 21 15  1  0
 22 24  1  0
 23 22  2  0
M  END
$$$$
