VHA.pdb
     RDKit          3D

 23 23  0  0  1  0  0  0  0  0999 V2000
   19.5857  -12.1896  -16.9567 C   0  0  0  0  0  0  0  0  0  0  0  0
   18.3436  -12.3106  -16.1152 C   0  0  2  0  0  0  0  0  0  0  0  0
   17.4351  -13.3234  -16.7992 C   0  0  0  0  0  0  0  0  0  0  0  0
   17.5739  -11.0226  -16.0177 C   0  0  2  0  0  0  0  0  0  0  0  0
   17.0228  -10.7275  -17.3027 N   0  0  0  0  0  0  0  0  0  0  0  0
   18.3755   -9.8944  -15.5313 C   0  0  0  0  0  0  0  0  0  0  0  0
   18.7873   -9.9005  -14.3494 O   0  0  0  0  0  0  0  0  0  0  0  0
   18.7168   -8.7773  -16.3375 N   0  0  0  0  0  0  0  0  0  0  0  0
   19.4930   -7.6608  -15.8703 C   0  0  1  0  0  0  0  0  0  0  0  0
   20.9403   -7.7392  -16.2714 C   0  0  0  0  0  0  0  0  0  0  0  0
   21.7386   -8.6544  -15.4558 C   0  0  0  0  0  0  0  0  0  0  0  0
   21.3318   -9.3778  -14.3548 C   0  0  0  0  0  0  0  0  0  0  0  0
   22.3876  -10.1076  -13.8891 N   0  0  0  0  0  0  0  0  0  0  0  0
   23.4362   -9.8403  -14.6911 C   0  0  0  0  0  0  0  0  0  0  0  0
   23.0358   -8.9644  -15.6313 N   0  0  0  0  0  0  0  0  0  0  0  0
   18.8372   -6.3877  -16.2534 C   0  0  0  0  0  0  0  0  0  0  0  0
   18.4902   -6.1966  -17.4688 O   0  0  0  0  0  0  0  0  0  0  0  0
   16.9458   -3.6983  -14.7508 C   0  0  0  0  0  0  0  0  0  0  0  0
   18.0414   -4.0508  -15.7648 C   0  0  2  0  0  0  0  0  0  0  0  0
   18.5569   -5.3390  -15.3562 N   0  0  0  0  0  0  0  0  0  0  0  0
   19.0377   -2.9773  -15.7287 C   0  0  0  0  0  0  0  0  0  0  0  0
   20.1106   -3.1986  -15.1136 O   0  0  0  0  0  0  0  0  0  0  0  0
   18.7871   -1.7685  -16.3566 O   0  0  0  0  0  0  0  0  0  0  0  0
  2  1  1  6
  3  2  1  0
  4  5  1  6
  4  2  1  0
  4  6  1  0
  6  7  2  0
  8  6  1  0
  8  9  1  0
  9 16  1  0
 10 11  1  0
  9 10  1  6
 11 12  2  0
 12 13  1  0
 14 13  1  0
 15 11  1  0
 15 14  2  0
 16 20  1  0
 16 17  2  0
 19 18  1  1
 19 21  1  0
 20 19  1  0
 21 22  2  0
 21 23  1  0
M  END
$$$$
