VHA.pdb
     RDKit          3D

 23 23  0  0  1  0  0  0  0  0999 V2000
   15.0986  -12.5369  -11.5212 C   0  0  0  0  0  0  0  0  0  0  0  0
   14.1034  -11.5046  -11.9792 C   0  0  2  0  0  0  0  0  0  0  0  0
   14.8045  -10.6330  -13.0125 C   0  0  0  0  0  0  0  0  0  0  0  0
   13.6492  -10.5960  -10.8707 C   0  0  2  0  0  0  0  0  0  0  0  0
   12.3759  -10.0527  -11.2252 N   0  0  0  0  0  0  0  0  0  0  0  0
   14.5993   -9.5207  -10.5656 C   0  0  0  0  0  0  0  0  0  0  0  0
   15.5979   -9.7699   -9.8534 O   0  0  0  0  0  0  0  0  0  0  0  0
   14.4488   -8.1914  -11.0396 N   0  0  0  0  0  0  0  0  0  0  0  0
   15.3959   -7.1396  -10.7862 C   0  0  1  0  0  0  0  0  0  0  0  0
   16.0705   -6.6399  -12.0340 C   0  0  0  0  0  0  0  0  0  0  0  0
   17.0588   -7.5636  -12.5909 C   0  0  0  0  0  0  0  0  0  0  0  0
   17.4862   -8.7628  -12.0616 C   0  0  0  0  0  0  0  0  0  0  0  0
   18.4168   -9.3098  -12.8976 N   0  0  0  0  0  0  0  0  0  0  0  0
   18.5650   -8.4606  -13.9325 C   0  0  0  0  0  0  0  0  0  0  0  0
   17.7433   -7.4123  -13.7391 N   0  0  0  0  0  0  0  0  0  0  0  0
   14.7641   -6.0674   -9.9808 C   0  0  0  0  0  0  0  0  0  0  0  0
   13.7021   -5.4986  -10.4085 O   0  0  0  0  0  0  0  0  0  0  0  0
   15.2152   -4.6620   -6.5630 C   0  0  0  0  0  0  0  0  0  0  0  0
   14.6475   -4.5417   -7.9829 C   0  0  2  0  0  0  0  0  0  0  0  0
   15.2563   -5.6114   -8.7427 N   0  0  0  0  0  0  0  0  0  0  0  0
   14.9778   -3.2031   -8.4781 C   0  0  0  0  0  0  0  0  0  0  0  0
   15.9766   -3.0908   -9.2321 O   0  0  0  0  0  0  0  0  0  0  0  0
   14.2043   -2.1126   -8.1168 O   0  0  0  0  0  0  0  0  0  0  0  0
  2  1  1  1
  3  2  1  0
  4  5  1  6
  4  2  1  0
  4  6  1  0
  6  7  2  0
  8  6  1  0
  8  9  1  0
  9 16  1  0
 10 11  1  0
  9 10  1  6
 11 12  2  0
 12 13  1  0
 14 13  1  0
 15 11  1  0
 15 14  2  0
 16 20  1  0
 16 17  2  0
 19 18  1  1
 19 21  1  0
 20 19  1  0
 21 22  2  0
 21 23  1  0
M  END
$$$$
