VHA.pdb
     RDKit          3D

 23 23  0  0  1  0  0  0  0  0999 V2000
   24.3313  -36.0791  -12.0556 C   0  0  0  0  0  0  0  0  0  0  0  0
   24.8339  -35.1927  -13.1636 C   0  0  2  0  0  0  0  0  0  0  0  0
   26.3272  -34.9963  -12.9386 C   0  0  0  0  0  0  0  0  0  0  0  0
   24.2031  -33.8279  -13.1542 C   0  0  2  0  0  0  0  0  0  0  0  0
   24.7325  -33.0782  -14.2495 N   0  0  0  0  0  0  0  0  0  0  0  0
   24.3938  -33.1009  -11.8944 C   0  0  0  0  0  0  0  0  0  0  0  0
   25.2995  -32.2407  -11.8151 O   0  0  0  0  0  0  0  0  0  0  0  0
   23.5970  -33.3206  -10.7407 N   0  0  0  0  0  0  0  0  0  0  0  0
   23.7789  -32.6211   -9.4977 C   0  0  1  0  0  0  0  0  0  0  0  0
   22.5029  -32.0369   -8.9572 C   0  0  0  0  0  0  0  0  0  0  0  0
   22.1093  -30.7754   -9.5849 C   0  0  0  0  0  0  0  0  0  0  0  0
   22.8180  -30.0331  -10.5055 C   0  0  0  0  0  0  0  0  0  0  0  0
   22.0919  -28.9247  -10.8346 N   0  0  0  0  0  0  0  0  0  0  0  0
   20.9471  -28.9787  -10.1270 C   0  0  0  0  0  0  0  0  0  0  0  0
   20.9666  -30.0965   -9.3776 N   0  0  0  0  0  0  0  0  0  0  0  0
   24.4969  -33.4824   -8.5280 C   0  0  0  0  0  0  0  0  0  0  0  0
   24.1652  -34.7111   -8.4080 O   0  0  0  0  0  0  0  0  0  0  0  0
   27.3714  -33.0517   -6.1753 C   0  0  0  0  0  0  0  0  0  0  0  0
   26.1856  -33.8694   -6.7028 C   0  0  2  0  0  0  0  0  0  0  0  0
   25.5489  -33.0405   -7.7027 N   0  0  0  0  0  0  0  0  0  0  0  0
   25.3240  -34.1844   -5.5606 C   0  0  0  0  0  0  0  0  0  0  0  0
   24.2453  -33.5495   -5.4519 O   0  0  0  0  0  0  0  0  0  0  0  0
   25.7026  -35.1511   -4.6439 O   0  0  0  0  0  0  0  0  0  0  0  0
  2  1  1  1
  3  2  1  0
  4  5  1  6
  4  2  1  0
  4  6  1  0
  6  7  2  0
  8  6  1  0
  8  9  1  0
  9 16  1  0
 10 11  1  0
  9 10  1  1
 11 12  2  0
 12 13  1  0
 14 13  1  0
 15 11  1  0
 15 14  2  0
 16 20  1  0
 16 17  2  0
 19 18  1  1
 19 21  1  0
 20 19  1  0
 21 22  2  0
 21 23  1  0
M  END
$$$$
