VHA.pdb
     RDKit          3D

 23 23  0  0  1  0  0  0  0  0999 V2000
   17.9101  -12.4137  -15.5337 C   0  0  0  0  0  0  0  0  0  0  0  0
   18.1270  -11.9015  -16.9324 C   0  0  2  0  0  0  0  0  0  0  0  0
   18.5546  -13.0893  -17.7840 C   0  0  0  0  0  0  0  0  0  0  0  0
   19.2259  -10.8787  -17.0182 C   0  0  2  0  0  0  0  0  0  0  0  0
   20.4673  -11.5243  -16.7280 N   0  0  0  0  0  0  0  0  0  0  0  0
   19.0268   -9.7266  -16.1323 C   0  0  0  0  0  0  0  0  0  0  0  0
   17.9848   -9.0421  -16.2429 O   0  0  0  0  0  0  0  0  0  0  0  0
   19.9637   -9.3366  -15.1401 N   0  0  0  0  0  0  0  0  0  0  0  0
   19.8421   -8.1410  -14.3507 C   0  0  1  0  0  0  0  0  0  0  0  0
   19.7781   -8.4135  -12.8731 C   0  0  0  0  0  0  0  0  0  0  0  0
   18.4499   -8.7937  -12.3917 C   0  0  0  0  0  0  0  0  0  0  0  0
   17.3285   -9.0760  -13.1425 C   0  0  0  0  0  0  0  0  0  0  0  0
   16.2988   -9.3867  -12.3016 N   0  0  0  0  0  0  0  0  0  0  0  0
   16.7753   -9.2984  -11.0449 C   0  0  0  0  0  0  0  0  0  0  0  0
   18.0713   -8.9408  -11.1093 N   0  0  0  0  0  0  0  0  0  0  0  0
   20.8946   -7.1690  -14.7317 C   0  0  0  0  0  0  0  0  0  0  0  0
   22.1206   -7.5308  -14.7262 O   0  0  0  0  0  0  0  0  0  0  0  0
   20.9412   -3.6805  -16.0692 C   0  0  0  0  0  0  0  0  0  0  0  0
   21.6759   -4.9120  -15.5245 C   0  0  2  0  0  0  0  0  0  0  0  0
   20.6429   -5.8365  -15.1116 N   0  0  0  0  0  0  0  0  0  0  0  0
   22.5385   -4.4623  -14.4291 C   0  0  0  0  0  0  0  0  0  0  0  0
   22.1087   -4.5967  -13.2562 O   0  0  0  0  0  0  0  0  0  0  0  0
   23.7805   -3.9112  -14.6974 O   0  0  0  0  0  0  0  0  0  0  0  0
  2  1  1  1
  3  2  1  0
  4  5  1  1
  4  2  1  0
  4  6  1  0
  6  7  2  0
  8  6  1  0
  8  9  1  0
  9 16  1  0
 10 11  1  0
  9 10  1  1
 11 12  2  0
 12 13  1  0
 14 13  1  0
 15 11  1  0
 15 14  2  0
 16 20  1  0
 16 17  2  0
 19 18  1  1
 19 21  1  0
 20 19  1  0
 21 22  2  0
 21 23  1  0
M  END
$$$$
