VHA.pdb
     RDKit          3D

 23 23  0  0  1  0  0  0  0  0999 V2000
   20.3891  -13.0539  -16.7842 C   0  0  0  0  0  0  0  0  0  0  0  0
   19.2274  -12.4382  -17.5172 C   0  0  2  0  0  0  0  0  0  0  0  0
   19.8013  -11.6560  -18.6910 C   0  0  0  0  0  0  0  0  0  0  0  0
   18.4525  -11.4637  -16.6742 C   0  0  2  0  0  0  0  0  0  0  0  0
   17.3574  -10.9689  -17.4475 N   0  0  0  0  0  0  0  0  0  0  0  0
   19.2639  -10.3533  -16.1638 C   0  0  0  0  0  0  0  0  0  0  0  0
   20.2153  -10.5964  -15.3877 O   0  0  0  0  0  0  0  0  0  0  0  0
   19.0284   -8.9960  -16.5053 N   0  0  0  0  0  0  0  0  0  0  0  0
   19.9392   -7.9253  -16.2029 C   0  0  1  0  0  0  0  0  0  0  0  0
   21.3458   -8.2008  -16.6582 C   0  0  0  0  0  0  0  0  0  0  0  0
   22.1303   -9.0074  -15.7232 C   0  0  0  0  0  0  0  0  0  0  0  0
   21.9377   -9.1528  -14.3658 C   0  0  0  0  0  0  0  0  0  0  0  0
   22.8914   -9.9948  -13.8704 N   0  0  0  0  0  0  0  0  0  0  0  0
   23.6659  -10.3673  -14.9074 C   0  0  0  0  0  0  0  0  0  0  0  0
   23.2000   -9.7677  -16.0187 N   0  0  0  0  0  0  0  0  0  0  0  0
   19.3951   -6.6378  -16.6968 C   0  0  0  0  0  0  0  0  0  0  0  0
   19.1057   -6.5079  -17.9352 O   0  0  0  0  0  0  0  0  0  0  0  0
   17.8667   -3.6397  -15.1992 C   0  0  0  0  0  0  0  0  0  0  0  0
   18.6234   -4.2638  -16.3786 C   0  0  2  0  0  0  0  0  0  0  0  0
   19.1640   -5.5110  -15.8844 N   0  0  0  0  0  0  0  0  0  0  0  0
   19.6455   -3.3043  -16.8042 C   0  0  0  0  0  0  0  0  0  0  0  0
   19.2547   -2.2268  -17.3188 O   0  0  0  0  0  0  0  0  0  0  0  0
   20.9896   -3.5932  -16.6367 O   0  0  0  0  0  0  0  0  0  0  0  0
  2  1  1  1
  3  2  1  0
  4  5  1  6
  4  2  1  0
  4  6  1  0
  6  7  2  0
  8  6  1  0
  8  9  1  0
  9 16  1  0
 10 11  1  0
  9 10  1  6
 11 12  2  0
 12 13  1  0
 14 13  1  0
 15 11  1  0
 15 14  2  0
 16 20  1  0
 16 17  2  0
 19 18  1  1
 19 21  1  0
 20 19  1  0
 21 22  2  0
 21 23  1  0
M  END
$$$$
