VHA.pdb
     RDKit          3D

 23 23  0  0  1  0  0  0  0  0999 V2000
   14.3661  -11.3517  -11.1233 C   0  0  0  0  0  0  0  0  0  0  0  0
   13.9240  -10.9018   -9.7566 C   0  0  2  0  0  0  0  0  0  0  0  0
   12.7078  -11.7375   -9.3808 C   0  0  0  0  0  0  0  0  0  0  0  0
   13.4964   -9.4607   -9.7237 C   0  0  2  0  0  0  0  0  0  0  0  0
   12.3748   -9.3025  -10.5950 N   0  0  0  0  0  0  0  0  0  0  0  0
   14.5643   -8.5224  -10.0858 C   0  0  0  0  0  0  0  0  0  0  0  0
   15.5366   -8.3733   -9.3119 O   0  0  0  0  0  0  0  0  0  0  0  0
   14.5583   -7.7609  -11.2834 N   0  0  0  0  0  0  0  0  0  0  0  0
   15.5994   -6.8399  -11.6511 C   0  0  1  0  0  0  0  0  0  0  0  0
   16.1489   -7.0898  -13.0286 C   0  0  0  0  0  0  0  0  0  0  0  0
   17.1047   -8.1950  -13.1002 C   0  0  0  0  0  0  0  0  0  0  0  0
   17.6314   -8.9249  -12.0557 C   0  0  0  0  0  0  0  0  0  0  0  0
   18.4857   -9.8642  -12.5577 N   0  0  0  0  0  0  0  0  0  0  0  0
   18.4890   -9.7188  -13.8968 C   0  0  0  0  0  0  0  0  0  0  0  0
   17.6546   -8.7115  -14.2139 N   0  0  0  0  0  0  0  0  0  0  0  0
   15.1464   -5.4450  -11.4350 C   0  0  0  0  0  0  0  0  0  0  0  0
   14.0583   -5.0437  -11.9728 O   0  0  0  0  0  0  0  0  0  0  0  0
   15.8793   -2.6814   -9.1244 C   0  0  0  0  0  0  0  0  0  0  0  0
   15.4328   -3.1159  -10.5261 C   0  0  2  0  0  0  0  0  0  0  0  0
   15.8413   -4.4970  -10.6594 N   0  0  0  0  0  0  0  0  0  0  0  0
   16.0696   -2.2157  -11.4907 C   0  0  0  0  0  0  0  0  0  0  0  0
   17.0151   -2.6742  -12.1793 O   0  0  0  0  0  0  0  0  0  0  0  0
   15.6304   -0.9090  -11.6241 O   0  0  0  0  0  0  0  0  0  0  0  0
  2  1  1  6
  3  2  1  0
  4  5  1  6
  4  2  1  0
  4  6  1  0
  6  7  2  0
  8  6  1  0
  8  9  1  0
  9 16  1  0
 10 11  1  0
  9 10  1  6
 11 12  2  0
 12 13  1  0
 14 13  1  0
 15 11  1  0
 15 14  2  0
 16 20  1  0
 16 17  2  0
 19 18  1  1
 19 21  1  0
 20 19  1  0
 21 22  2  0
 21 23  1  0
M  END
$$$$
