VHA.pdb
     RDKit          3D

 23 23  0  0  1  0  0  0  0  0999 V2000
   23.9862  -13.9322  -17.4591 C   0  0  0  0  0  0  0  0  0  0  0  0
   23.3092  -12.6106  -17.7059 C   0  0  2  0  0  0  0  0  0  0  0  0
   23.5975  -12.2215  -19.1496 C   0  0  0  0  0  0  0  0  0  0  0  0
   23.8440  -11.5068  -16.8362 C   0  0  2  0  0  0  0  0  0  0  0  0
   24.0842  -12.0364  -15.5309 N   0  0  0  0  0  0  0  0  0  0  0  0
   22.9612  -10.3376  -16.7615 C   0  0  0  0  0  0  0  0  0  0  0  0
   22.6873   -9.7093  -17.8088 O   0  0  0  0  0  0  0  0  0  0  0  0
   22.3900   -9.8697  -15.5494 N   0  0  0  0  0  0  0  0  0  0  0  0
   21.4013   -8.8280  -15.4806 C   0  0  1  0  0  0  0  0  0  0  0  0
   20.1077   -9.2822  -14.8626 C   0  0  0  0  0  0  0  0  0  0  0  0
   19.2474  -10.0447  -15.7675 C   0  0  0  0  0  0  0  0  0  0  0  0
   19.4758  -10.3500  -17.0924 C   0  0  0  0  0  0  0  0  0  0  0  0
   18.4230  -11.0782  -17.5673 N   0  0  0  0  0  0  0  0  0  0  0  0
   17.5525  -11.2227  -16.5498 C   0  0  0  0  0  0  0  0  0  0  0  0
   18.0574  -10.5971  -15.4704 N   0  0  0  0  0  0  0  0  0  0  0  0
   21.9758   -7.6210  -14.8396 C   0  0  0  0  0  0  0  0  0  0  0  0
   22.5444   -7.7214  -13.6991 O   0  0  0  0  0  0  0  0  0  0  0  0
   22.7330   -4.1566  -15.9534 C   0  0  0  0  0  0  0  0  0  0  0  0
   22.6026   -5.1839  -14.8217 C   0  0  2  0  0  0  0  0  0  0  0  0
   21.9441   -6.3318  -15.4054 N   0  0  0  0  0  0  0  0  0  0  0  0
   21.8424   -4.5538  -13.7394 C   0  0  0  0  0  0  0  0  0  0  0  0
   20.6327   -4.8698  -13.6164 O   0  0  0  0  0  0  0  0  0  0  0  0
   22.4536   -3.6444  -12.8922 O   0  0  0  0  0  0  0  0  0  0  0  0
  2  1  1  1
  3  2  1  0
  4  5  1  1
  4  2  1  0
  4  6  1  0
  6  7  2  0
  8  6  1  0
  8  9  1  0
  9 16  1  0
 10 11  1  0
  9 10  1  1
 11 12  2  0
 12 13  1  0
 14 13  1  0
 15 11  1  0
 15 14  2  0
 16 20  1  0
 16 17  2  0
 19 18  1  6
 19 21  1  0
 20 19  1  0
 21 22  2  0
 21 23  1  0
M  END
$$$$
