VHA.pdb
     RDKit          3D

 23 23  0  0  1  0  0  0  0  0999 V2000
   21.1118  -11.4473  -17.6912 C   0  0  0  0  0  0  0  0  0  0  0  0
   19.7820  -11.9894  -17.2401 C   0  0  2  0  0  0  0  0  0  0  0  0
   19.3300  -12.9981  -18.2876 C   0  0  0  0  0  0  0  0  0  0  0  0
   18.7160  -10.9323  -17.1566 C   0  0  2  0  0  0  0  0  0  0  0  0
   18.4452  -10.4586  -18.4774 N   0  0  0  0  0  0  0  0  0  0  0  0
   19.0641   -9.8152  -16.2718 C   0  0  0  0  0  0  0  0  0  0  0  0
   19.1382  -10.0116  -15.0380 O   0  0  0  0  0  0  0  0  0  0  0  0
   19.3262   -8.5021  -16.7423 N   0  0  0  0  0  0  0  0  0  0  0  0
   19.7982   -7.4319  -15.9060 C   0  0  1  0  0  0  0  0  0  0  0  0
   21.2980   -7.3265  -15.8730 C   0  0  0  0  0  0  0  0  0  0  0  0
   21.9578   -8.4068  -15.1395 C   0  0  0  0  0  0  0  0  0  0  0  0
   21.7927   -8.7518  -13.8150 C   0  0  0  0  0  0  0  0  0  0  0  0
   22.5960   -9.8188  -13.5314 N   0  0  0  0  0  0  0  0  0  0  0  0
   23.2512  -10.1317  -14.6658 C   0  0  0  0  0  0  0  0  0  0  0  0
   22.8605   -9.2761  -15.6285 N   0  0  0  0  0  0  0  0  0  0  0  0
   19.1202   -6.1643  -16.2684 C   0  0  0  0  0  0  0  0  0  0  0  0
   19.1268   -5.7696  -17.4842 O   0  0  0  0  0  0  0  0  0  0  0  0
   16.8492   -3.7722  -14.5394 C   0  0  0  0  0  0  0  0  0  0  0  0
   17.7602   -4.1182  -15.7241 C   0  0  2  0  0  0  0  0  0  0  0  0
   18.4479   -5.3345  -15.3505 N   0  0  0  0  0  0  0  0  0  0  0  0
   18.6533   -2.9774  -15.9416 C   0  0  0  0  0  0  0  0  0  0  0  0
   19.8595   -3.1117  -15.6169 O   0  0  0  0  0  0  0  0  0  0  0  0
   18.1662   -1.8013  -16.4872 O   0  0  0  0  0  0  0  0  0  0  0  0
  2  1  1  6
  3  2  1  0
  4  5  1  6
  4  2  1  0
  4  6  1  0
  6  7  2  0
  8  6  1  0
  8  9  1  0
  9 16  1  0
 10 11  1  0
  9 10  1  6
 11 12  2  0
 12 13  1  0
 14 13  1  0
 15 11  1  0
 15 14  2  0
 16 20  1  0
 16 17  2  0
 19 18  1  1
 19 21  1  0
 20 19  1  0
 21 22  2  0
 21 23  1  0
M  END
$$$$
