VHA.pdb
     RDKit          3D

 23 23  0  0  1  0  0  0  0  0999 V2000
   24.4815  -14.2404  -17.0974 C   0  0  0  0  0  0  0  0  0  0  0  0
   23.6330  -13.0415  -17.4269 C   0  0  2  0  0  0  0  0  0  0  0  0
   23.6919  -12.8515  -18.9367 C   0  0  0  0  0  0  0  0  0  0  0  0
   24.1434  -11.7726  -16.8023 C   0  0  2  0  0  0  0  0  0  0  0  0
   24.6983  -12.0899  -15.5242 N   0  0  0  0  0  0  0  0  0  0  0  0
   23.1211  -10.7285  -16.6734 C   0  0  0  0  0  0  0  0  0  0  0  0
   22.5689  -10.2818  -17.7039 O   0  0  0  0  0  0  0  0  0  0  0  0
   22.7151  -10.1865  -15.4261 N   0  0  0  0  0  0  0  0  0  0  0  0
   21.6601   -9.2207  -15.2788 C   0  0  1  0  0  0  0  0  0  0  0  0
   20.5126   -9.7227  -14.4464 C   0  0  0  0  0  0  0  0  0  0  0  0
   19.7096  -10.7584  -15.0967 C   0  0  0  0  0  0  0  0  0  0  0  0
   19.0067  -10.6637  -16.2791 C   0  0  0  0  0  0  0  0  0  0  0  0
   18.3943  -11.8584  -16.5276 N   0  0  0  0  0  0  0  0  0  0  0  0
   18.7132  -12.6839  -15.5121 C   0  0  0  0  0  0  0  0  0  0  0  0
   19.5054  -12.0127  -14.6556 N   0  0  0  0  0  0  0  0  0  0  0  0
   22.2139   -7.9276  -14.8110 C   0  0  0  0  0  0  0  0  0  0  0  0
   22.9742   -7.9006  -13.7838 O   0  0  0  0  0  0  0  0  0  0  0  0
   22.2113   -4.4159  -16.0857 C   0  0  0  0  0  0  0  0  0  0  0  0
   22.5598   -5.4422  -15.0003 C   0  0  2  0  0  0  0  0  0  0  0  0
   21.9611   -6.6873  -15.4283 N   0  0  0  0  0  0  0  0  0  0  0  0
   22.0310   -4.9381  -13.7304 C   0  0  0  0  0  0  0  0  0  0  0  0
   20.9146   -5.3719  -13.3510 O   0  0  0  0  0  0  0  0  0  0  0  0
   22.7512   -4.0163  -12.9889 O   0  0  0  0  0  0  0  0  0  0  0  0
  2  1  1  6
  3  2  1  0
  4  5  1  1
  4  2  1  0
  4  6  1  0
  6  7  2  0
  8  6  1  0
  8  9  1  0
  9 16  1  0
 10 11  1  0
  9 10  1  1
 11 12  2  0
 12 13  1  0
 14 13  1  0
 15 11  1  0
 15 14  2  0
 16 20  1  0
 16 17  2  0
 19 18  1  6
 19 21  1  0
 20 19  1  0
 21 22  2  0
 21 23  1  0
M  END
$$$$
