PEQ.pdb
     RDKit          3D

 26 26  0  0  1  0  0  0  0  0999 V2000
   15.3897  -19.9793    2.5379 N   0  0  0  0  0  0  0  0  0  0  0  0
   14.4112  -20.9761    2.2172 C   0  0  0  0  0  0  0  0  0  0  0  0
   13.2820  -20.1949    1.6169 C   0  0  0  0  0  0  0  0  0  0  0  0
   13.2421  -18.9686    2.5323 C   0  0  0  0  0  0  0  0  0  0  0  0
   14.7122  -18.7305    2.7612 C   0  0  1  0  0  0  0  0  0  0  0  0
   14.9997  -18.2154    4.1283 C   0  0  0  0  0  0  0  0  0  0  0  0
   14.4321  -17.2219    4.6238 O   0  0  0  0  0  0  0  0  0  0  0  0
   15.9690  -18.8799    4.9225 N   0  0  0  0  0  0  0  0  0  0  0  0
   16.2658  -18.4365    6.2817 C   0  0  1  0  0  0  0  0  0  0  0  0
   16.4109  -19.6105    7.2084 C   0  0  0  0  0  0  0  0  0  0  0  0
   16.6485  -19.2520    8.6307 C   0  0  0  0  0  0  0  0  0  0  0  0
   16.7632  -20.5077    9.4237 C   0  0  0  0  0  0  0  0  0  0  0  0
   16.8813  -20.4742   10.6682 O   0  0  0  0  0  0  0  0  0  0  0  0
   17.4219  -17.5378    6.2333 C   0  0  0  0  0  0  0  0  0  0  0  0
   18.3883  -17.6844    5.4269 O   0  0  0  0  0  0  0  0  0  0  0  0
   16.7407  -21.7635    8.7850 O   0  0  0  0  0  0  0  0  0  0  0  0
   18.9799  -11.3201    4.8721 N   0  0  0  0  0  0  0  0  0  0  0  0
   18.8598  -11.7584    6.2147 C   0  0  0  0  0  0  0  0  0  0  0  0
   18.3646  -10.9173    7.0413 O   0  0  0  0  0  0  0  0  0  0  0  0
   19.2865  -13.1154    6.5902 C   0  0  0  0  0  0  0  0  0  0  0  0
   18.2294  -14.1402    6.7257 C   0  0  0  0  0  0  0  0  0  0  0  0
   18.6979  -15.4971    7.0484 C   0  0  2  0  0  0  0  0  0  0  0  0
   17.5331  -16.4224    7.1063 N   0  0  0  0  0  0  0  0  0  0  0  0
   19.4637  -15.6765    8.2528 C   0  0  0  0  0  0  0  0  0  0  0  0
   18.8914  -16.0398    9.3301 O   0  0  0  0  0  0  0  0  0  0  0  0
   20.8254  -15.4902    8.3429 O   0  0  0  0  0  0  0  0  0  0  0  0
  1  2  1  0
  1  5  1  0
  2  3  1  0
  3  4  1  0
  5  4  1  0
  6  7  2  0
  5  6  1  1
  8  6  1  0
  9  8  1  0
  9 10  1  1
 11 10  1  0
 12 11  1  0
 13 12  2  0
 14  9  1  0
 15 14  2  0
 16 12  1  0
 18 17  1  0
 19 18  2  0
 20 18  1  0
 22 21  1  1
 21 20  1  0
 22 23  1  0
 23 14  1  0
 24 22  1  0
 25 24  2  0
 26 24  1  0
M  END
$$$$
