PEQ.pdb
     RDKit          3D

 26 26  0  0  1  0  0  0  0  0999 V2000
   25.6655  -19.3079  -18.2426 N   0  0  0  0  0  0  0  0  0  0  0  0
   25.6762  -18.5633  -19.4671 C   0  0  0  0  0  0  0  0  0  0  0  0
   25.5514  -17.1369  -19.0244 C   0  0  0  0  0  0  0  0  0  0  0  0
   24.5187  -17.2581  -17.9008 C   0  0  0  0  0  0  0  0  0  0  0  0
   24.9443  -18.5511  -17.2550 C   0  0  1  0  0  0  0  0  0  0  0  0
   23.7901  -19.3346  -16.7344 C   0  0  0  0  0  0  0  0  0  0  0  0
   23.2651  -20.2815  -17.3529 O   0  0  0  0  0  0  0  0  0  0  0  0
   23.2472  -18.9981  -15.4680 N   0  0  0  0  0  0  0  0  0  0  0  0
   22.0811  -19.6971  -14.9353 C   0  0  1  0  0  0  0  0  0  0  0  0
   22.1824  -19.8481  -13.4436 C   0  0  0  0  0  0  0  0  0  0  0  0
   21.0293  -20.5393  -12.8107 C   0  0  0  0  0  0  0  0  0  0  0  0
   21.2831  -20.6419  -11.3465 C   0  0  0  0  0  0  0  0  0  0  0  0
   22.2656  -20.0728  -10.8224 O   0  0  0  0  0  0  0  0  0  0  0  0
   20.8751  -19.0133  -15.4091 C   0  0  0  0  0  0  0  0  0  0  0  0
   20.7664  -17.7525  -15.4750 O   0  0  0  0  0  0  0  0  0  0  0  0
   20.4177  -21.3850  -10.5193 O   0  0  0  0  0  0  0  0  0  0  0  0
   17.6417  -20.5488  -20.2209 N   0  0  0  0  0  0  0  0  0  0  0  0
   18.5647  -19.4851  -20.0609 C   0  0  0  0  0  0  0  0  0  0  0  0
   19.1266  -19.0594  -21.1281 O   0  0  0  0  0  0  0  0  0  0  0  0
   18.8256  -18.9277  -18.7246 C   0  0  0  0  0  0  0  0  0  0  0  0
   18.0850  -19.5215  -17.5910 C   0  0  0  0  0  0  0  0  0  0  0  0
   18.4795  -19.0461  -16.2557 C   0  0  2  0  0  0  0  0  0  0  0  0
   19.7285  -19.7372  -15.8330 N   0  0  0  0  0  0  0  0  0  0  0  0
   17.5241  -19.1697  -15.1875 C   0  0  0  0  0  0  0  0  0  0  0  0
   16.5917  -18.3131  -15.0568 O   0  0  0  0  0  0  0  0  0  0  0  0
   17.5252  -20.1859  -14.2577 O   0  0  0  0  0  0  0  0  0  0  0  0
  1  2  1  0
  1  5  1  0
  2  3  1  0
  3  4  1  0
  5  4  1  0
  6  7  2  0
  5  6  1  6
  8  6  1  0
  9  8  1  0
  9 10  1  1
 11 10  1  0
 12 11  1  0
 13 12  2  0
 14  9  1  0
 15 14  2  0
 16 12  1  0
 18 17  1  0
 19 18  2  0
 20 18  1  0
 22 21  1  6
 21 20  1  0
 22 23  1  0
 23 14  1  0
 24 22  1  0
 25 24  2  0
 26 24  1  0
M  END
$$$$
