PEQ.pdb
     RDKit          3D

 26 26  0  0  1  0  0  0  0  0999 V2000
   21.4469  -14.6987  -17.9042 N   0  0  0  0  0  0  0  0  0  0  0  0
   20.9765  -15.7325  -18.7784 C   0  0  0  0  0  0  0  0  0  0  0  0
   22.2091  -16.1829  -19.5022 C   0  0  0  0  0  0  0  0  0  0  0  0
   22.9088  -14.8476  -19.7682 C   0  0  0  0  0  0  0  0  0  0  0  0
   22.6242  -14.1111  -18.4850 C   0  0  1  0  0  0  0  0  0  0  0  0
   22.4303  -12.6502  -18.6976 C   0  0  0  0  0  0  0  0  0  0  0  0
   23.2988  -11.9048  -19.1924 O   0  0  0  0  0  0  0  0  0  0  0  0
   21.1966  -12.0596  -18.3224 N   0  0  0  0  0  0  0  0  0  0  0  0
   20.9707  -10.6242  -18.4665 C   0  0  1  0  0  0  0  0  0  0  0  0
   19.8899  -10.3506  -19.4741 C   0  0  0  0  0  0  0  0  0  0  0  0
   19.5850   -8.9111  -19.6809 C   0  0  0  0  0  0  0  0  0  0  0  0
   18.5311   -8.7948  -20.7270 C   0  0  0  0  0  0  0  0  0  0  0  0
   18.7761   -8.2598  -21.8304 O   0  0  0  0  0  0  0  0  0  0  0  0
   20.7366  -10.0567  -17.1362 C   0  0  0  0  0  0  0  0  0  0  0  0
   20.0812  -10.6499  -16.2283 O   0  0  0  0  0  0  0  0  0  0  0  0
   17.2317   -9.2873  -20.4934 O   0  0  0  0  0  0  0  0  0  0  0  0
   23.5033   -4.7513  -14.6887 N   0  0  0  0  0  0  0  0  0  0  0  0
   22.5503   -5.1404  -13.7142 C   0  0  0  0  0  0  0  0  0  0  0  0
   22.5016   -4.4256  -12.6548 O   0  0  0  0  0  0  0  0  0  0  0  0
   21.6816   -6.3035  -13.9531 C   0  0  0  0  0  0  0  0  0  0  0  0
   21.8283   -6.9982  -15.2500 C   0  0  0  0  0  0  0  0  0  0  0  0
   20.9787   -8.1852  -15.4344 C   0  0  2  0  0  0  0  0  0  0  0  0
   21.2411   -8.7788  -16.7742 N   0  0  0  0  0  0  0  0  0  0  0  0
   19.5562   -8.0235  -15.2948 C   0  0  0  0  0  0  0  0  0  0  0  0
   18.9812   -8.3126  -14.1966 O   0  0  0  0  0  0  0  0  0  0  0  0
   18.7264   -7.5525  -16.2882 O   0  0  0  0  0  0  0  0  0  0  0  0
  1  2  1  0
  1  5  1  0
  2  3  1  0
  3  4  1  0
  5  4  1  0
  6  7  2  0
  5  6  1  6
  8  6  1  0
  9  8  1  0
  9 10  1  6
 11 10  1  0
 12 11  1  0
 13 12  2  0
 14  9  1  0
 15 14  2  0
 16 12  1  0
 18 17  1  0
 19 18  2  0
 20 18  1  0
 22 21  1  6
 21 20  1  0
 22 23  1  0
 23 14  1  0
 24 22  1  0
 25 24  2  0
 26 24  1  0
M  END
$$$$
