PEQ.pdb
     RDKit          3D

 26 26  0  0  1  0  0  0  0  0999 V2000
   24.3999  -11.9962  -15.8986 N   0  0  0  0  0  0  0  0  0  0  0  0
   24.2110  -13.4169  -15.9124 C   0  0  0  0  0  0  0  0  0  0  0  0
   24.4845  -13.8046  -17.3340 C   0  0  0  0  0  0  0  0  0  0  0  0
   23.7996  -12.6665  -18.0951 C   0  0  0  0  0  0  0  0  0  0  0  0
   24.1361  -11.4884  -17.2181 C   0  0  1  0  0  0  0  0  0  0  0  0
   23.0452  -10.4757  -17.1814 C   0  0  0  0  0  0  0  0  0  0  0  0
   22.6073   -9.8976  -18.1958 O   0  0  0  0  0  0  0  0  0  0  0  0
   22.4623  -10.1395  -15.9329 N   0  0  0  0  0  0  0  0  0  0  0  0
   21.3905   -9.1521  -15.8402 C   0  0  1  0  0  0  0  0  0  0  0  0
   20.1968   -9.7227  -15.1276 C   0  0  0  0  0  0  0  0  0  0  0  0
   19.2908  -10.5306  -15.9845 C   0  0  0  0  0  0  0  0  0  0  0  0
   18.2044  -11.0890  -15.1321 C   0  0  0  0  0  0  0  0  0  0  0  0
   18.2604  -12.2632  -14.7056 O   0  0  0  0  0  0  0  0  0  0  0  0
   21.9386   -7.9281  -15.2503 C   0  0  0  0  0  0  0  0  0  0  0  0
   22.7842   -7.9246  -14.3066 O   0  0  0  0  0  0  0  0  0  0  0  0
   17.0873  -10.3022  -14.7878 O   0  0  0  0  0  0  0  0  0  0  0  0
   21.7176   -2.0322  -17.8114 N   0  0  0  0  0  0  0  0  0  0  0  0
   22.3011   -1.8389  -16.5342 C   0  0  0  0  0  0  0  0  0  0  0  0
   22.6678   -0.6457  -16.2554 O   0  0  0  0  0  0  0  0  0  0  0  0
   22.4503   -2.9740  -15.6102 C   0  0  0  0  0  0  0  0  0  0  0  0
   21.9497   -4.2869  -16.0704 C   0  0  0  0  0  0  0  0  0  0  0  0
   22.1057   -5.3961  -15.1165 C   0  0  2  0  0  0  0  0  0  0  0  0
   21.5473   -6.6420  -15.7100 N   0  0  0  0  0  0  0  0  0  0  0  0
   21.5383   -5.2403  -13.8039 C   0  0  0  0  0  0  0  0  0  0  0  0
   20.3367   -5.5938  -13.5770 O   0  0  0  0  0  0  0  0  0  0  0  0
   22.2162   -4.7276  -12.7200 O   0  0  0  0  0  0  0  0  0  0  0  0
  1  2  1  0
  1  5  1  0
  2  3  1  0
  3  4  1  0
  5  4  1  0
  6  7  2  0
  5  6  1  1
  8  6  1  0
  9  8  1  0
  9 10  1  1
 11 10  1  0
 12 11  1  0
 13 12  2  0
 14  9  1  0
 15 14  2  0
 16 12  1  0
 18 17  1  0
 19 18  2  0
 20 18  1  0
 22 21  1  6
 21 20  1  0
 22 23  1  0
 23 14  1  0
 24 22  1  0
 25 24  2  0
 26 24  1  0
M  END
$$$$
