PEQ.pdb
     RDKit          3D

 26 26  0  0  1  0  0  0  0  0999 V2000
   18.3457  -10.4072  -16.0753 N   0  0  0  0  0  0  0  0  0  0  0  0
   18.5039  -11.6294  -16.8067 C   0  0  0  0  0  0  0  0  0  0  0  0
   18.7769  -12.6529  -15.7465 C   0  0  0  0  0  0  0  0  0  0  0  0
   19.7145  -11.8808  -14.8147 C   0  0  0  0  0  0  0  0  0  0  0  0
   19.0923  -10.5090  -14.8502 C   0  0  1  0  0  0  0  0  0  0  0  0
   20.1057   -9.4216  -14.7623 C   0  0  0  0  0  0  0  0  0  0  0  0
   20.9666   -9.3532  -13.8628 O   0  0  0  0  0  0  0  0  0  0  0  0
   20.1047   -8.4009  -15.7472 N   0  0  0  0  0  0  0  0  0  0  0  0
   21.0734   -7.3092  -15.7056 C   0  0  1  0  0  0  0  0  0  0  0  0
   21.6256   -7.0306  -17.0752 C   0  0  0  0  0  0  0  0  0  0  0  0
   22.3282   -8.1780  -17.7057 C   0  0  0  0  0  0  0  0  0  0  0  0
   22.7252   -7.7899  -19.0879 C   0  0  0  0  0  0  0  0  0  0  0  0
   22.2351   -8.3661  -20.0838 O   0  0  0  0  0  0  0  0  0  0  0  0
   20.4488   -6.1613  -15.0433 C   0  0  0  0  0  0  0  0  0  0  0  0
   19.1949   -5.9997  -14.9589 O   0  0  0  0  0  0  0  0  0  0  0  0
   23.6645   -6.7617  -19.3019 O   0  0  0  0  0  0  0  0  0  0  0  0
   18.3591   -5.6575  -10.3090 N   0  0  0  0  0  0  0  0  0  0  0  0
   17.8368   -4.5581  -11.0354 C   0  0  0  0  0  0  0  0  0  0  0  0
   16.7117   -4.1000  -10.6351 O   0  0  0  0  0  0  0  0  0  0  0  0
   18.5841   -4.0026  -12.1744 C   0  0  0  0  0  0  0  0  0  0  0  0
   19.8820   -4.6317  -12.4992 C   0  0  0  0  0  0  0  0  0  0  0  0
   20.6029   -4.0476  -13.6411 C   0  0  2  0  0  0  0  0  0  0  0  0
   21.2275   -5.1363  -14.4418 N   0  0  0  0  0  0  0  0  0  0  0  0
   21.6171   -3.0653  -13.3660 C   0  0  0  0  0  0  0  0  0  0  0  0
   22.8483   -3.3560  -13.5066 O   0  0  0  0  0  0  0  0  0  0  0  0
   21.3593   -1.7763  -12.9546 O   0  0  0  0  0  0  0  0  0  0  0  0
  1  2  1  0
  1  5  1  0
  2  3  1  0
  3  4  1  0
  5  4  1  0
  6  7  2  0
  5  6  1  6
  8  6  1  0
  9  8  1  0
  9 10  1  6
 11 10  1  0
 12 11  1  0
 13 12  2  0
 14  9  1  0
 15 14  2  0
 16 12  1  0
 18 17  1  0
 19 18  2  0
 20 18  1  0
 22 21  1  1
 21 20  1  0
 22 23  1  0
 23 14  1  0
 24 22  1  0
 25 24  2  0
 26 24  1  0
M  END
$$$$
