PEQ.pdb
     RDKit          3D

 26 26  0  0  1  0  0  0  0  0999 V2000
   27.3062  -19.4866  -15.0009 N   0  0  0  0  0  0  0  0  0  0  0  0
   28.6069  -19.5829  -14.4068 C   0  0  0  0  0  0  0  0  0  0  0  0
   29.2910  -20.6513  -15.2046 C   0  0  0  0  0  0  0  0  0  0  0  0
   28.1605  -21.6684  -15.3803 C   0  0  0  0  0  0  0  0  0  0  0  0
   26.9809  -20.7557  -15.5942 C   0  0  1  0  0  0  0  0  0  0  0  0
   25.7252  -21.3013  -15.0090 C   0  0  0  0  0  0  0  0  0  0  0  0
   25.2396  -22.4049  -15.3268 O   0  0  0  0  0  0  0  0  0  0  0  0
   25.0321  -20.5362  -14.0363 N   0  0  0  0  0  0  0  0  0  0  0  0
   23.8050  -21.0313  -13.4188 C   0  0  1  0  0  0  0  0  0  0  0  0
   23.8956  -20.9662  -11.9202 C   0  0  0  0  0  0  0  0  0  0  0  0
   25.2628  -21.1636  -11.3725 C   0  0  0  0  0  0  0  0  0  0  0  0
   25.2127  -20.9825   -9.8949 C   0  0  0  0  0  0  0  0  0  0  0  0
   26.2613  -20.9560   -9.2140 O   0  0  0  0  0  0  0  0  0  0  0  0
   22.6701  -20.3124  -14.0034 C   0  0  0  0  0  0  0  0  0  0  0  0
   22.7788  -19.1977  -14.5962 O   0  0  0  0  0  0  0  0  0  0  0  0
   23.9779  -20.8369   -9.2319 O   0  0  0  0  0  0  0  0  0  0  0  0
   19.7908  -22.8860  -17.9282 N   0  0  0  0  0  0  0  0  0  0  0  0
   19.4952  -21.5434  -18.2734 C   0  0  0  0  0  0  0  0  0  0  0  0
   18.7676  -21.3742  -19.3116 O   0  0  0  0  0  0  0  0  0  0  0  0
   20.0113  -20.4380  -17.4511 C   0  0  0  0  0  0  0  0  0  0  0  0
   20.8811  -20.7966  -16.3105 C   0  0  0  0  0  0  0  0  0  0  0  0
   20.3310  -20.5078  -14.9769 C   0  0  2  0  0  0  0  0  0  0  0  0
   21.3493  -20.8320  -13.9403 N   0  0  0  0  0  0  0  0  0  0  0  0
   19.1003  -21.1513  -14.6022 C   0  0  0  0  0  0  0  0  0  0  0  0
   19.0775  -22.3994  -14.3532 O   0  0  0  0  0  0  0  0  0  0  0  0
   17.8919  -20.5028  -14.4743 O   0  0  0  0  0  0  0  0  0  0  0  0
  1  2  1  0
  1  5  1  0
  2  3  1  0
  3  4  1  0
  5  4  1  0
  6  7  2  0
  5  6  1  1
  8  6  1  0
  9  8  1  0
  9 10  1  1
 11 10  1  0
 12 11  1  0
 13 12  2  0
 14  9  1  0
 15 14  2  0
 16 12  1  0
 18 17  1  0
 19 18  2  0
 20 18  1  0
 22 21  1  6
 21 20  1  0
 22 23  1  0
 23 14  1  0
 24 22  1  0
 25 24  2  0
 26 24  1  0
M  END
$$$$
