PEQ.pdb
     RDKit          3D

 26 26  0  0  1  0  0  0  0  0999 V2000
   24.4407  -12.1483  -15.8827 N   0  0  0  0  0  0  0  0  0  0  0  0
   24.1653  -13.5312  -16.1392 C   0  0  0  0  0  0  0  0  0  0  0  0
   24.5243  -13.7101  -17.5832 C   0  0  0  0  0  0  0  0  0  0  0  0
   23.9734  -12.4190  -18.1941 C   0  0  0  0  0  0  0  0  0  0  0  0
   24.3131  -11.4215  -17.1172 C   0  0  1  0  0  0  0  0  0  0  0  0
   23.2880  -10.3491  -16.9902 C   0  0  0  0  0  0  0  0  0  0  0  0
   23.0347   -9.5277  -17.8935 O   0  0  0  0  0  0  0  0  0  0  0  0
   22.5513  -10.2430  -15.7829 N   0  0  0  0  0  0  0  0  0  0  0  0
   21.4314   -9.3142  -15.6596 C   0  0  1  0  0  0  0  0  0  0  0  0
   20.2592   -9.9743  -14.9898 C   0  0  0  0  0  0  0  0  0  0  0  0
   19.4284  -10.8197  -15.8859 C   0  0  0  0  0  0  0  0  0  0  0  0
   18.3214  -11.4139  -15.0858 C   0  0  0  0  0  0  0  0  0  0  0  0
   18.2622  -11.2490  -13.8475 O   0  0  0  0  0  0  0  0  0  0  0  0
   21.9121   -8.0936  -15.0071 C   0  0  0  0  0  0  0  0  0  0  0  0
   22.7447   -8.0928  -14.0519 O   0  0  0  0  0  0  0  0  0  0  0  0
   17.3147  -12.1767  -15.7104 O   0  0  0  0  0  0  0  0  0  0  0  0
   21.5472   -2.1435  -17.3946 N   0  0  0  0  0  0  0  0  0  0  0  0
   22.1232   -1.9713  -16.1110 C   0  0  0  0  0  0  0  0  0  0  0  0
   22.4717   -0.7797  -15.8036 O   0  0  0  0  0  0  0  0  0  0  0  0
   22.2852   -3.1251  -15.2127 C   0  0  0  0  0  0  0  0  0  0  0  0
   21.7794   -4.4287  -15.6933 C   0  0  0  0  0  0  0  0  0  0  0  0
   21.9792   -5.5637  -14.7787 C   0  0  2  0  0  0  0  0  0  0  0  0
   21.4646   -6.8080  -15.4138 N   0  0  0  0  0  0  0  0  0  0  0  0
   21.4108   -5.4743  -13.4603 C   0  0  0  0  0  0  0  0  0  0  0  0
   22.0580   -4.9144  -12.5180 O   0  0  0  0  0  0  0  0  0  0  0  0
   20.1669   -5.9552  -13.1160 O   0  0  0  0  0  0  0  0  0  0  0  0
  1  2  1  0
  1  5  1  0
  2  3  1  0
  3  4  1  0
  5  4  1  0
  6  7  2  0
  5  6  1  1
  8  6  1  0
  9  8  1  0
  9 10  1  1
 11 10  1  0
 12 11  1  0
 13 12  2  0
 14  9  1  0
 15 14  2  0
 16 12  1  0
 18 17  1  0
 19 18  2  0
 20 18  1  0
 22 21  1  6
 21 20  1  0
 22 23  1  0
 23 14  1  0
 24 22  1  0
 25 24  2  0
 26 24  1  0
M  END
$$$$
