PEQ.pdb
     RDKit          3D

 26 26  0  0  1  0  0  0  0  0999 V2000
   29.1400  -21.9468  -12.1594 N   0  0  0  0  0  0  0  0  0  0  0  0
   30.5121  -21.6373  -11.8844 C   0  0  0  0  0  0  0  0  0  0  0  0
   30.5017  -21.1849  -10.4557 C   0  0  0  0  0  0  0  0  0  0  0  0
   29.2264  -20.3391  -10.4154 C   0  0  0  0  0  0  0  0  0  0  0  0
   28.3110  -21.1539  -11.2919 C   0  0  1  0  0  0  0  0  0  0  0  0
   27.3805  -20.3062  -12.0872 C   0  0  0  0  0  0  0  0  0  0  0  0
   26.6715  -19.4086  -11.5908 O   0  0  0  0  0  0  0  0  0  0  0  0
   27.2838  -20.5189  -13.4862 N   0  0  0  0  0  0  0  0  0  0  0  0
   26.4145  -19.6920  -14.3184 C   0  0  1  0  0  0  0  0  0  0  0  0
   27.0225  -19.4723  -15.6750 C   0  0  0  0  0  0  0  0  0  0  0  0
   26.1853  -18.6743  -16.6078 C   0  0  0  0  0  0  0  0  0  0  0  0
   26.8203  -17.3395  -16.7916 C   0  0  0  0  0  0  0  0  0  0  0  0
   28.0279  -17.2386  -17.1005 O   0  0  0  0  0  0  0  0  0  0  0  0
   25.0770  -20.2900  -14.3275 C   0  0  0  0  0  0  0  0  0  0  0  0
   24.8645  -21.5250  -14.5154 O   0  0  0  0  0  0  0  0  0  0  0  0
   26.0701  -16.1590  -16.6204 O   0  0  0  0  0  0  0  0  0  0  0  0
   21.4968  -19.8367   -9.6768 N   0  0  0  0  0  0  0  0  0  0  0  0
   20.6226  -20.4902  -10.5811 C   0  0  0  0  0  0  0  0  0  0  0  0
   19.5423  -20.9597  -10.0829 O   0  0  0  0  0  0  0  0  0  0  0  0
   20.9750  -20.5931  -12.0058 C   0  0  0  0  0  0  0  0  0  0  0  0
   22.2675  -20.0092  -12.4235 C   0  0  0  0  0  0  0  0  0  0  0  0
   22.5854  -20.1287  -13.8551 C   0  0  2  0  0  0  0  0  0  0  0  0
   23.9107  -19.5051  -14.1218 N   0  0  0  0  0  0  0  0  0  0  0  0
   21.6458  -19.5888  -14.8010 C   0  0  0  0  0  0  0  0  0  0  0  0
   21.7934  -18.4070  -15.2503 O   0  0  0  0  0  0  0  0  0  0  0  0
   20.5566  -20.2741  -15.2921 O   0  0  0  0  0  0  0  0  0  0  0  0
  1  2  1  0
  1  5  1  0
  2  3  1  0
  3  4  1  0
  5  4  1  0
  6  7  2  0
  5  6  1  6
  8  6  1  0
  9  8  1  0
  9 10  1  6
 11 10  1  0
 12 11  1  0
 13 12  2  0
 14  9  1  0
 15 14  2  0
 16 12  1  0
 18 17  1  0
 19 18  2  0
 20 18  1  0
 22 21  1  1
 21 20  1  0
 22 23  1  0
 23 14  1  0
 24 22  1  0
 25 24  2  0
 26 24  1  0
M  END
$$$$
