PEQ.pdb
     RDKit          3D

 26 26  0  0  1  0  0  0  0  0999 V2000
   27.3517  -20.4832  -13.4124 N   0  0  0  0  0  0  0  0  0  0  0  0
   28.1371  -20.1567  -12.2589 C   0  0  0  0  0  0  0  0  0  0  0  0
   27.4525  -20.8794  -11.1386 C   0  0  0  0  0  0  0  0  0  0  0  0
   25.9794  -20.6447  -11.4825 C   0  0  0  0  0  0  0  0  0  0  0  0
   26.0092  -20.7702  -12.9837 C   0  0  1  0  0  0  0  0  0  0  0  0
   25.0398  -19.8581  -13.6509 C   0  0  0  0  0  0  0  0  0  0  0  0
   24.9127  -18.6531  -13.3565 O   0  0  0  0  0  0  0  0  0  0  0  0
   24.2089  -20.3724  -14.6789 N   0  0  0  0  0  0  0  0  0  0  0  0
   23.1337  -19.5697  -15.2548 C   0  0  1  0  0  0  0  0  0  0  0  0
   23.3305  -19.3930  -16.7341 C   0  0  0  0  0  0  0  0  0  0  0  0
   22.3590  -18.4754  -17.3836 C   0  0  0  0  0  0  0  0  0  0  0  0
   22.6463  -18.4370  -18.8447 C   0  0  0  0  0  0  0  0  0  0  0  0
   22.1775  -19.3030  -19.6155 O   0  0  0  0  0  0  0  0  0  0  0  0
   21.8527  -20.1649  -14.8661 C   0  0  0  0  0  0  0  0  0  0  0  0
   21.7437  -21.3223  -14.3619 O   0  0  0  0  0  0  0  0  0  0  0  0
   23.4553  -17.4202  -19.3897 O   0  0  0  0  0  0  0  0  0  0  0  0
   21.1142  -19.1793  -10.0173 N   0  0  0  0  0  0  0  0  0  0  0  0
   20.3739  -20.3352  -10.3708 C   0  0  0  0  0  0  0  0  0  0  0  0
   20.2425  -21.2226   -9.4591 O   0  0  0  0  0  0  0  0  0  0  0  0
   19.8005  -20.4618  -11.7198 C   0  0  0  0  0  0  0  0  0  0  0  0
   20.0920  -19.3758  -12.6798 C   0  0  0  0  0  0  0  0  0  0  0  0
   19.5327  -19.5535  -14.0289 C   0  0  2  0  0  0  0  0  0  0  0  0
   20.6271  -19.4661  -15.0344 N   0  0  0  0  0  0  0  0  0  0  0  0
   18.4806  -18.6648  -14.4442 C   0  0  0  0  0  0  0  0  0  0  0  0
   18.3525  -17.5216  -13.8992 O   0  0  0  0  0  0  0  0  0  0  0  0
   17.5646  -18.9527  -15.4318 O   0  0  0  0  0  0  0  0  0  0  0  0
  1  2  1  0
  1  5  1  0
  2  3  1  0
  3  4  1  0
  5  4  1  0
  6  7  2  0
  5  6  1  6
  8  6  1  0
  9  8  1  0
  9 10  1  6
 11 10  1  0
 12 11  1  0
 13 12  2  0
 14  9  1  0
 15 14  2  0
 16 12  1  0
 18 17  1  0
 19 18  2  0
 20 18  1  0
 22 21  1  1
 21 20  1  0
 22 23  1  0
 23 14  1  0
 24 22  1  0
 25 24  2  0
 26 24  1  0
M  END
$$$$
