PEQ.pdb
     RDKit          3D

 26 26  0  0  1  0  0  0  0  0999 V2000
   28.5539  -21.5695  -12.6260 N   0  0  0  0  0  0  0  0  0  0  0  0
   29.8381  -21.1611  -12.1381 C   0  0  0  0  0  0  0  0  0  0  0  0
   29.6491  -21.0700  -10.6542 C   0  0  0  0  0  0  0  0  0  0  0  0
   28.2614  -20.4299  -10.5646 C   0  0  0  0  0  0  0  0  0  0  0  0
   27.5501  -21.1214  -11.6986 C   0  0  1  0  0  0  0  0  0  0  0  0
   26.5664  -20.2347  -12.3790 C   0  0  0  0  0  0  0  0  0  0  0  0
   25.6964  -19.5781  -11.7734 O   0  0  0  0  0  0  0  0  0  0  0  0
   26.6082  -20.1199  -13.7921 N   0  0  0  0  0  0  0  0  0  0  0  0
   25.7362  -19.1877  -14.5011 C   0  0  1  0  0  0  0  0  0  0  0  0
   26.4088  -18.6593  -15.7367 C   0  0  0  0  0  0  0  0  0  0  0  0
   25.6162  -17.6555  -16.4930 C   0  0  0  0  0  0  0  0  0  0  0  0
   26.4335  -17.1727  -17.6409 C   0  0  0  0  0  0  0  0  0  0  0  0
   25.9394  -17.0723  -18.7853 O   0  0  0  0  0  0  0  0  0  0  0  0
   24.4460  -19.8432  -14.7294 C   0  0  0  0  0  0  0  0  0  0  0  0
   24.3308  -21.0354  -15.1431 O   0  0  0  0  0  0  0  0  0  0  0  0
   27.7851  -16.8179  -17.4596 O   0  0  0  0  0  0  0  0  0  0  0  0
   20.0143  -20.0823  -10.7057 N   0  0  0  0  0  0  0  0  0  0  0  0
   20.1015  -21.2504  -11.5038 C   0  0  0  0  0  0  0  0  0  0  0  0
   19.6127  -22.3183  -10.9974 O   0  0  0  0  0  0  0  0  0  0  0  0
   20.7211  -21.1902  -12.8369 C   0  0  0  0  0  0  0  0  0  0  0  0
   21.2635  -19.8844  -13.2688 C   0  0  0  0  0  0  0  0  0  0  0  0
   21.9088  -19.8706  -14.5910 C   0  0  2  0  0  0  0  0  0  0  0  0
   23.2179  -19.1680  -14.4958 N   0  0  0  0  0  0  0  0  0  0  0  0
   21.1796  -19.2971  -15.6903 C   0  0  0  0  0  0  0  0  0  0  0  0
   21.4444  -18.1187  -16.0921 O   0  0  0  0  0  0  0  0  0  0  0  0
   20.1813  -19.9455  -16.3833 O   0  0  0  0  0  0  0  0  0  0  0  0
  1  2  1  0
  1  5  1  0
  2  3  1  0
  3  4  1  0
  5  4  1  0
  6  7  2  0
  5  6  1  6
  8  6  1  0
  9  8  1  0
  9 10  1  6
 11 10  1  0
 12 11  1  0
 13 12  2  0
 14  9  1  0
 15 14  2  0
 16 12  1  0
 18 17  1  0
 19 18  2  0
 20 18  1  0
 22 21  1  1
 21 20  1  0
 22 23  1  0
 23 14  1  0
 24 22  1  0
 25 24  2  0
 26 24  1  0
M  END
$$$$
