PEQ.pdb
     RDKit          3D

 26 26  0  0  1  0  0  0  0  0999 V2000
   18.2967  -11.8882  -17.1260 N   0  0  0  0  0  0  0  0  0  0  0  0
   18.5124  -13.1059  -17.8502 C   0  0  0  0  0  0  0  0  0  0  0  0
   18.6989  -14.1364  -16.7782 C   0  0  0  0  0  0  0  0  0  0  0  0
   19.5593  -13.3712  -15.7693 C   0  0  0  0  0  0  0  0  0  0  0  0
   18.9427  -11.9985  -15.8458 C   0  0  1  0  0  0  0  0  0  0  0  0
   19.9463  -10.9127  -15.6699 C   0  0  0  0  0  0  0  0  0  0  0  0
   20.6807  -10.8090  -14.6675 O   0  0  0  0  0  0  0  0  0  0  0  0
   20.0866   -9.9359  -16.6887 N   0  0  0  0  0  0  0  0  0  0  0  0
   20.9762   -8.7904  -16.5204 C   0  0  1  0  0  0  0  0  0  0  0  0
   21.4049   -8.2448  -17.8535 C   0  0  0  0  0  0  0  0  0  0  0  0
   22.3342   -7.0877  -17.7800 C   0  0  0  0  0  0  0  0  0  0  0  0
   22.6205   -6.6204  -19.1651 C   0  0  0  0  0  0  0  0  0  0  0  0
   23.6291   -7.0238  -19.7846 O   0  0  0  0  0  0  0  0  0  0  0  0
   20.3226   -7.8229  -15.6354 C   0  0  0  0  0  0  0  0  0  0  0  0
   19.0991   -7.5065  -15.7271 O   0  0  0  0  0  0  0  0  0  0  0  0
   21.7571   -5.7109  -19.8077 O   0  0  0  0  0  0  0  0  0  0  0  0
   18.2892   -8.2743  -10.4860 N   0  0  0  0  0  0  0  0  0  0  0  0
   18.3699   -6.8593  -10.4638 C   0  0  0  0  0  0  0  0  0  0  0  0
   17.8152   -6.2774   -9.4690 O   0  0  0  0  0  0  0  0  0  0  0  0
   19.0685   -6.1418  -11.5416 C   0  0  0  0  0  0  0  0  0  0  0  0
   19.6579   -6.9598  -12.6231 C   0  0  0  0  0  0  0  0  0  0  0  0
   20.3667   -6.2102  -13.6721 C   0  0  2  0  0  0  0  0  0  0  0  0
   21.0359   -7.1656  -14.5972 N   0  0  0  0  0  0  0  0  0  0  0  0
   21.3432   -5.2370  -13.2614 C   0  0  0  0  0  0  0  0  0  0  0  0
   20.9961   -4.2373  -12.5541 O   0  0  0  0  0  0  0  0  0  0  0  0
   22.6833   -5.3014  -13.5731 O   0  0  0  0  0  0  0  0  0  0  0  0
  1  2  1  0
  1  5  1  0
  2  3  1  0
  3  4  1  0
  5  4  1  0
  6  7  2  0
  5  6  1  6
  8  6  1  0
  9  8  1  0
  9 10  1  6
 11 10  1  0
 12 11  1  0
 13 12  2  0
 14  9  1  0
 15 14  2  0
 16 12  1  0
 18 17  1  0
 19 18  2  0
 20 18  1  0
 22 21  1  1
 21 20  1  0
 22 23  1  0
 23 14  1  0
 24 22  1  0
 25 24  2  0
 26 24  1  0
M  END
$$$$
