PEQ.pdb
     RDKit          3D

 26 26  0  0  1  0  0  0  0  0999 V2000
   18.2472  -14.3526    4.2706 N   0  0  0  0  0  0  0  0  0  0  0  0
   17.9093  -13.8922    2.9561 C   0  0  0  0  0  0  0  0  0  0  0  0
   16.9562  -12.7621    3.2024 C   0  0  0  0  0  0  0  0  0  0  0  0
   16.1092  -13.3245    4.3468 C   0  0  0  0  0  0  0  0  0  0  0  0
   17.1573  -14.0430    5.1564 C   0  0  1  0  0  0  0  0  0  0  0  0
   16.6334  -15.2816    5.7954 C   0  0  0  0  0  0  0  0  0  0  0  0
   15.7313  -15.2842    6.6563 O   0  0  0  0  0  0  0  0  0  0  0  0
   17.1795  -16.5341    5.4151 N   0  0  0  0  0  0  0  0  0  0  0  0
   16.7571  -17.7718    6.0646 C   0  0  1  0  0  0  0  0  0  0  0  0
   16.6256  -18.8844    5.0631 C   0  0  0  0  0  0  0  0  0  0  0  0
   15.5320  -18.7020    4.0737 C   0  0  0  0  0  0  0  0  0  0  0  0
   15.5933  -19.8170    3.0879 C   0  0  0  0  0  0  0  0  0  0  0  0
   14.8791  -19.8081    2.0613 O   0  0  0  0  0  0  0  0  0  0  0  0
   17.6689  -18.0445    7.1785 C   0  0  0  0  0  0  0  0  0  0  0  0
   18.7900  -17.4713    7.3209 O   0  0  0  0  0  0  0  0  0  0  0  0
   16.4605  -20.9084    3.2930 O   0  0  0  0  0  0  0  0  0  0  0  0
   17.6303  -15.8560   12.0059 N   0  0  0  0  0  0  0  0  0  0  0  0
   18.7655  -16.6734   12.2347 C   0  0  0  0  0  0  0  0  0  0  0  0
   19.4092  -16.4557   13.3182 O   0  0  0  0  0  0  0  0  0  0  0  0
   19.1413  -17.7069   11.2572 C   0  0  0  0  0  0  0  0  0  0  0  0
   18.3685  -17.7550    9.9977 C   0  0  0  0  0  0  0  0  0  0  0  0
   18.1433  -19.0983    9.4416 C   0  0  2  0  0  0  0  0  0  0  0  0
   17.3453  -18.9887    8.1896 N   0  0  0  0  0  0  0  0  0  0  0  0
   17.5105  -20.0782   10.2833 C   0  0  0  0  0  0  0  0  0  0  0  0
   16.4200  -20.6270    9.9228 O   0  0  0  0  0  0  0  0  0  0  0  0
   18.0099  -20.5002   11.4956 O   0  0  0  0  0  0  0  0  0  0  0  0
  1  2  1  0
  1  5  1  0
  2  3  1  0
  3  4  1  0
  5  4  1  0
  6  7  2  0
  5  6  1  6
  8  6  1  0
  9  8  1  0
  9 10  1  6
 11 10  1  0
 12 11  1  0
 13 12  2  0
 14  9  1  0
 15 14  2  0
 16 12  1  0
 18 17  1  0
 19 18  2  0
 20 18  1  0
 22 21  1  1
 21 20  1  0
 22 23  1  0
 23 14  1  0
 24 22  1  0
 25 24  2  0
 26 24  1  0
M  END
$$$$
