EYN.pdb
     RDKit          3D

 30 30  0  0  1  0  0  0  0  0999 V2000
   26.0334  -22.8807  -16.5028 N   0  0  0  0  0  0  0  0  0  0  0  0
   26.3978  -21.6552  -15.8425 C   0  0  1  0  0  0  0  0  0  0  0  0
   25.6305  -20.5448  -16.5066 C   0  0  0  0  0  0  0  0  0  0  0  0
   25.0704  -20.8863  -17.8458 C   0  0  0  0  0  0  0  0  0  0  0  0
   26.1315  -20.6652  -18.8627 C   0  0  0  0  0  0  0  0  0  0  0  0
   26.8154  -19.6037  -18.9015 O   0  0  0  0  0  0  0  0  0  0  0  0
   26.1006  -21.7785  -14.3876 C   0  0  0  0  0  0  0  0  0  0  0  0
   25.0977  -22.4401  -13.9795 O   0  0  0  0  0  0  0  0  0  0  0  0
   26.4269  -21.6183  -19.8268 O   0  0  0  0  0  0  0  0  0  0  0  0
   26.0687  -19.5086   -5.8369 O   0  0  0  0  0  0  0  0  0  0  0  0
   26.4745  -19.7521   -7.1609 C   0  0  0  0  0  0  0  0  0  0  0  0
   27.0262  -20.9593   -7.5478 C   0  0  0  0  0  0  0  0  0  0  0  0
   27.4284  -21.2133   -8.8406 C   0  0  0  0  0  0  0  0  0  0  0  0
   27.2748  -20.2290   -9.7789 C   0  0  0  0  0  0  0  0  0  0  0  0
   27.6893  -20.4587  -11.1684 C   0  0  0  0  0  0  0  0  0  0  0  0
   26.5628  -20.9845  -12.0292 C   0  0  2  0  0  0  0  0  0  0  0  0
   26.9268  -21.1620  -13.4065 N   0  0  0  0  0  0  0  0  0  0  0  0
   25.4005  -20.0722  -11.8612 C   0  0  0  0  0  0  0  0  0  0  0  0
   25.3258  -18.9691  -12.4606 O   0  0  0  0  0  0  0  0  0  0  0  0
   26.7318  -19.0212   -9.4300 C   0  0  0  0  0  0  0  0  0  0  0  0
   26.3429  -18.7981   -8.1437 C   0  0  0  0  0  0  0  0  0  0  0  0
   20.1357  -21.1049  -13.5479 N   0  0  0  0  0  0  0  0  0  0  0  0
   21.1081  -20.2582  -12.9529 C   0  0  0  0  0  0  0  0  0  0  0  0
   20.6948  -19.0738  -12.7069 O   0  0  0  0  0  0  0  0  0  0  0  0
   22.4840  -20.6810  -12.6308 C   0  0  0  0  0  0  0  0  0  0  0  0
   22.9148  -20.0354  -11.3566 C   0  0  2  0  0  0  0  0  0  0  0  0
   24.2988  -20.3800  -11.0163 N   0  0  0  0  0  0  0  0  0  0  0  0
   22.1008  -20.5747  -10.2493 C   0  0  0  0  0  0  0  0  0  0  0  0
   22.6713  -21.3079   -9.2435 O   0  0  0  0  0  0  0  0  0  0  0  0
   20.8729  -20.3672  -10.2163 O   0  0  0  0  0  0  0  0  0  0  0  0
  2  1  1  6
  2  3  1  0
  3  4  1  0
  4  5  1  0
  5  9  1  0
  6  5  2  0
  7  8  2  0
  7  2  1  0
 10 11  1  0
 11 21  2  0
 12 11  1  0
 12 13  2  0
 13 14  1  0
 14 20  2  0
 14 15  1  0
 16 15  1  1
 16 18  1  0
 16 17  1  0
 17  7  1  0
 18 27  1  0
 19 18  2  0
 21 20  1  0
 23 22  1  0
 23 24  2  0
 25 23  1  0
 26 27  1  0
 26 25  1  6
 28 26  1  0
 29 28  1  0
 30 28  2  0
M  END
$$$$
