EYN.pdb
     RDKit          3D

 30 30  0  0  1  0  0  0  0  0999 V2000
   18.7396  -16.1306  -16.3295 N   0  0  0  0  0  0  0  0  0  0  0  0
   18.8341  -14.8954  -17.0617 C   0  0  1  0  0  0  0  0  0  0  0  0
   17.5037  -14.2034  -16.9437 C   0  0  0  0  0  0  0  0  0  0  0  0
   16.4933  -14.9280  -16.1205 C   0  0  0  0  0  0  0  0  0  0  0  0
   15.7287  -13.9244  -15.3350 C   0  0  0  0  0  0  0  0  0  0  0  0
   15.5940  -12.7289  -15.7207 O   0  0  0  0  0  0  0  0  0  0  0  0
   19.9603  -14.0886  -16.5131 C   0  0  0  0  0  0  0  0  0  0  0  0
   20.1856  -14.0453  -15.2651 O   0  0  0  0  0  0  0  0  0  0  0  0
   15.1203  -14.2505  -14.1314 O   0  0  0  0  0  0  0  0  0  0  0  0
   27.5322   -9.8053  -15.5626 O   0  0  0  0  0  0  0  0  0  0  0  0
   26.4485  -10.5264  -16.0943 C   0  0  0  0  0  0  0  0  0  0  0  0
   26.0185  -11.7175  -15.5397 C   0  0  0  0  0  0  0  0  0  0  0  0
   24.9587  -12.4355  -16.0486 C   0  0  0  0  0  0  0  0  0  0  0  0
   24.3061  -11.9481  -17.1484 C   0  0  0  0  0  0  0  0  0  0  0  0
   23.1709  -12.6813  -17.7219 C   0  0  0  0  0  0  0  0  0  0  0  0
   21.9068  -12.5198  -16.9080 C   0  0  2  0  0  0  0  0  0  0  0  0
   20.8209  -13.3403  -17.3644 N   0  0  0  0  0  0  0  0  0  0  0  0
   21.5596  -11.0739  -16.8924 C   0  0  0  0  0  0  0  0  0  0  0  0
   21.0074  -10.5096  -17.8714 O   0  0  0  0  0  0  0  0  0  0  0  0
   24.7059  -10.7710  -17.7229 C   0  0  0  0  0  0  0  0  0  0  0  0
   25.7573  -10.0822  -17.1981 C   0  0  0  0  0  0  0  0  0  0  0  0
   20.4961   -6.2190  -15.4696 N   0  0  0  0  0  0  0  0  0  0  0  0
   20.6655   -7.0049  -14.2992 C   0  0  0  0  0  0  0  0  0  0  0  0
   20.3719   -6.4000  -13.2120 O   0  0  0  0  0  0  0  0  0  0  0  0
   21.1346   -8.4034  -14.3052 C   0  0  0  0  0  0  0  0  0  0  0  0
   21.3836   -8.8360  -15.7112 C   0  0  2  0  0  0  0  0  0  0  0  0
   21.8258  -10.2324  -15.7774 N   0  0  0  0  0  0  0  0  0  0  0  0
   22.5065   -8.0505  -16.2604 C   0  0  0  0  0  0  0  0  0  0  0  0
   22.2838   -6.9437  -17.0350 O   0  0  0  0  0  0  0  0  0  0  0  0
   23.6819   -8.3885  -16.0234 O   0  0  0  0  0  0  0  0  0  0  0  0
  2  1  1  1
  2  3  1  0
  3  4  1  0
  4  5  1  0
  5  9  1  0
  6  5  2  0
  7  8  2  0
  7  2  1  0
 10 11  1  0
 11 21  2  0
 12 11  1  0
 12 13  2  0
 13 14  1  0
 14 20  2  0
 14 15  1  0
 16 15  1  6
 16 18  1  0
 16 17  1  0
 17  7  1  0
 18 27  1  0
 19 18  2  0
 21 20  1  0
 23 22  1  0
 23 24  2  0
 25 23  1  0
 26 27  1  0
 26 25  1  1
 28 26  1  0
 29 28  1  0
 30 28  2  0
M  END
$$$$
