EYN.pdb
     RDKit          3D

 30 30  0  0  1  0  0  0  0  0999 V2000
   28.9937  -23.1044  -17.6744 N   0  0  0  0  0  0  0  0  0  0  0  0
   28.1862  -21.9276  -17.4909 C   0  0  1  0  0  0  0  0  0  0  0  0
   27.3471  -21.7642  -18.7286 C   0  0  0  0  0  0  0  0  0  0  0  0
   28.0407  -21.1027  -19.8710 C   0  0  0  0  0  0  0  0  0  0  0  0
   28.3173  -19.6925  -19.4923 C   0  0  0  0  0  0  0  0  0  0  0  0
   27.3939  -18.8791  -19.2064 O   0  0  0  0  0  0  0  0  0  0  0  0
   27.3724  -22.0832  -16.2525 C   0  0  0  0  0  0  0  0  0  0  0  0
   26.7623  -23.1677  -16.0038 O   0  0  0  0  0  0  0  0  0  0  0  0
   29.6109  -19.1940  -19.4330 O   0  0  0  0  0  0  0  0  0  0  0  0
   23.9272  -20.7038   -8.2627 O   0  0  0  0  0  0  0  0  0  0  0  0
   24.6490  -20.5463   -9.4590 C   0  0  0  0  0  0  0  0  0  0  0  0
   24.1928  -19.7463  -10.4900 C   0  0  0  0  0  0  0  0  0  0  0  0
   24.8882  -19.5817  -11.6677 C   0  0  0  0  0  0  0  0  0  0  0  0
   26.0792  -20.2379  -11.8215 C   0  0  0  0  0  0  0  0  0  0  0  0
   26.8527  -20.0892  -13.0604 C   0  0  0  0  0  0  0  0  0  0  0  0
   26.4392  -21.0815  -14.1237 C   0  0  2  0  0  0  0  0  0  0  0  0
   27.2497  -21.0265  -15.3073 N   0  0  0  0  0  0  0  0  0  0  0  0
   24.9967  -20.8626  -14.4115 C   0  0  0  0  0  0  0  0  0  0  0  0
   24.6020  -19.9626  -15.1963 O   0  0  0  0  0  0  0  0  0  0  0  0
   26.5605  -21.0386  -10.8201 C   0  0  0  0  0  0  0  0  0  0  0  0
   25.8513  -21.1827   -9.6661 C   0  0  0  0  0  0  0  0  0  0  0  0
   19.8723  -21.4452  -14.8986 N   0  0  0  0  0  0  0  0  0  0  0  0
   20.5005  -22.7061  -14.7208 C   0  0  0  0  0  0  0  0  0  0  0  0
   19.7385  -23.7091  -14.9387 O   0  0  0  0  0  0  0  0  0  0  0  0
   21.9106  -22.8766  -14.3231 C   0  0  0  0  0  0  0  0  0  0  0  0
   22.5596  -21.5376  -14.2138 C   0  0  2  0  0  0  0  0  0  0  0  0
   23.9685  -21.6494  -13.8234 N   0  0  0  0  0  0  0  0  0  0  0  0
   21.9161  -20.7832  -13.1201 C   0  0  0  0  0  0  0  0  0  0  0  0
   22.3890  -20.8550  -11.8372 O   0  0  0  0  0  0  0  0  0  0  0  0
   20.9252  -20.0650  -13.3534 O   0  0  0  0  0  0  0  0  0  0  0  0
  2  1  1  6
  2  3  1  0
  3  4  1  0
  4  5  1  0
  5  9  1  0
  6  5  2  0
  7  8  2  0
  7  2  1  0
 10 11  1  0
 11 21  2  0
 12 11  1  0
 12 13  2  0
 13 14  1  0
 14 20  2  0
 14 15  1  0
 16 15  1  1
 16 18  1  0
 16 17  1  0
 17  7  1  0
 18 27  1  0
 19 18  2  0
 21 20  1  0
 23 22  1  0
 23 24  2  0
 25 23  1  0
 26 27  1  0
 26 25  1  1
 28 26  1  0
 29 28  1  0
 30 28  2  0
M  END
$$$$
