EYN.pdb
     RDKit          3D

 30 30  0  0  1  0  0  0  0  0999 V2000
   28.1748  -34.8058   -7.0760 N   0  0  0  0  0  0  0  0  0  0  0  0
   28.8281  -34.0277   -6.0571 C   0  0  1  0  0  0  0  0  0  0  0  0
   27.7845  -33.6596   -5.0382 C   0  0  0  0  0  0  0  0  0  0  0  0
   27.2676  -34.8028   -4.2321 C   0  0  0  0  0  0  0  0  0  0  0  0
   27.0121  -34.3184   -2.8505 C   0  0  0  0  0  0  0  0  0  0  0  0
   26.3511  -33.2672   -2.6176 O   0  0  0  0  0  0  0  0  0  0  0  0
   29.9491  -34.8223   -5.4807 C   0  0  0  0  0  0  0  0  0  0  0  0
   29.9972  -36.0823   -5.6227 O   0  0  0  0  0  0  0  0  0  0  0  0
   27.4888  -34.9994   -1.7395 O   0  0  0  0  0  0  0  0  0  0  0  0
   35.2732  -33.9181   -9.6660 O   0  0  0  0  0  0  0  0  0  0  0  0
   34.8123  -33.9647   -8.3385 C   0  0  0  0  0  0  0  0  0  0  0  0
   34.1356  -32.9068   -7.7603 C   0  0  0  0  0  0  0  0  0  0  0  0
   33.6778  -32.9372   -6.4614 C   0  0  0  0  0  0  0  0  0  0  0  0
   33.9032  -34.0614   -5.7143 C   0  0  0  0  0  0  0  0  0  0  0  0
   33.4310  -34.1357   -4.3262 C   0  0  0  0  0  0  0  0  0  0  0  0
   32.1294  -34.8944   -4.1973 C   0  0  2  0  0  0  0  0  0  0  0  0
   31.0024  -34.2005   -4.7533 N   0  0  0  0  0  0  0  0  0  0  0  0
   31.9398  -35.2280   -2.7606 C   0  0  0  0  0  0  0  0  0  0  0  0
   30.9135  -34.8772   -2.1240 O   0  0  0  0  0  0  0  0  0  0  0  0
   34.5703  -35.1278   -6.2558 C   0  0  0  0  0  0  0  0  0  0  0  0
   35.0117  -35.0697   -7.5432 C   0  0  0  0  0  0  0  0  0  0  0  0
   31.4330  -36.2224    1.8548 N   0  0  0  0  0  0  0  0  0  0  0  0
   30.8831  -37.0665    0.8541 C   0  0  0  0  0  0  0  0  0  0  0  0
   29.8217  -37.6830    1.2107 O   0  0  0  0  0  0  0  0  0  0  0  0
   31.4619  -37.2355   -0.4921 C   0  0  0  0  0  0  0  0  0  0  0  0
   32.6745  -36.3759   -0.6212 C   0  0  2  0  0  0  0  0  0  0  0  0
   32.8989  -35.9618   -2.0097 N   0  0  0  0  0  0  0  0  0  0  0  0
   33.8643  -37.1717   -0.2600 C   0  0  0  0  0  0  0  0  0  0  0  0
   34.8163  -36.6755    0.5897 O   0  0  0  0  0  0  0  0  0  0  0  0
   34.0181  -38.3157   -0.7286 O   0  0  0  0  0  0  0  0  0  0  0  0
  2  1  1  6
  2  3  1  0
  3  4  1  0
  4  5  1  0
  5  9  1  0
  6  5  2  0
  7  8  2  0
  7  2  1  0
 10 11  1  0
 11 21  2  0
 12 11  1  0
 12 13  2  0
 13 14  1  0
 14 20  2  0
 14 15  1  0
 16 15  1  1
 16 18  1  0
 16 17  1  0
 17  7  1  0
 18 27  1  0
 19 18  2  0
 21 20  1  0
 23 22  1  0
 23 24  2  0
 25 23  1  0
 26 27  1  0
 26 25  1  6
 28 26  1  0
 29 28  1  0
 30 28  2  0
M  END
$$$$
