EYN.pdb
     RDKit          3D

 30 30  0  0  1  0  0  0  0  0999 V2000
   13.7978   -9.9677  -13.5085 N   0  0  0  0  0  0  0  0  0  0  0  0
   15.2284  -10.0745  -13.3973 C   0  0  1  0  0  0  0  0  0  0  0  0
   15.7493  -10.5113  -14.7392 C   0  0  0  0  0  0  0  0  0  0  0  0
   15.6456  -11.9753  -15.0034 C   0  0  0  0  0  0  0  0  0  0  0  0
   16.5727  -12.6803  -14.0803 C   0  0  0  0  0  0  0  0  0  0  0  0
   16.2187  -13.0531  -12.9263 O   0  0  0  0  0  0  0  0  0  0  0  0
   15.7823   -8.7632  -12.9569 C   0  0  0  0  0  0  0  0  0  0  0  0
   15.3255   -7.6730  -13.4184 O   0  0  0  0  0  0  0  0  0  0  0  0
   17.8817  -12.9667  -14.4404 O   0  0  0  0  0  0  0  0  0  0  0  0
   12.4846   -6.9575   -7.4730 O   0  0  0  0  0  0  0  0  0  0  0  0
   13.7372   -7.0623   -8.1031 C   0  0  0  0  0  0  0  0  0  0  0  0
   14.5238   -5.9545   -8.3585 C   0  0  0  0  0  0  0  0  0  0  0  0
   15.7528   -6.0406   -8.9746 C   0  0  0  0  0  0  0  0  0  0  0  0
   16.2122   -7.2742   -9.3486 C   0  0  0  0  0  0  0  0  0  0  0  0
   17.5173   -7.4108  -10.0069 C   0  0  0  0  0  0  0  0  0  0  0  0
   17.4031   -7.4607  -11.5138 C   0  0  2  0  0  0  0  0  0  0  0  0
   16.8391   -8.6853  -12.0070 N   0  0  0  0  0  0  0  0  0  0  0  0
   18.7508   -7.1869  -12.0796 C   0  0  0  0  0  0  0  0  0  0  0  0
   19.6872   -8.0234  -12.0080 O   0  0  0  0  0  0  0  0  0  0  0  0
   15.4586   -8.3928   -9.1108 C   0  0  0  0  0  0  0  0  0  0  0  0
   14.2468   -8.2774   -8.4996 C   0  0  0  0  0  0  0  0  0  0  0  0
   22.4344   -7.2216  -15.8232 N   0  0  0  0  0  0  0  0  0  0  0  0
   21.2109   -6.5050  -15.7475 C   0  0  0  0  0  0  0  0  0  0  0  0
   21.0988   -5.5633  -16.6046 O   0  0  0  0  0  0  0  0  0  0  0  0
   20.1404   -6.8005  -14.7768 C   0  0  0  0  0  0  0  0  0  0  0  0
   20.2184   -5.8327  -13.6438 C   0  0  2  0  0  0  0  0  0  0  0  0
   19.0744   -5.9681  -12.7368 N   0  0  0  0  0  0  0  0  0  0  0  0
   20.1235   -4.4608  -14.1807 C   0  0  0  0  0  0  0  0  0  0  0  0
   18.9087   -3.8829  -14.4351 O   0  0  0  0  0  0  0  0  0  0  0  0
   21.1579   -3.8057  -14.4109 O   0  0  0  0  0  0  0  0  0  0  0  0
  2  1  1  6
  2  3  1  0
  3  4  1  0
  4  5  1  0
  5  9  1  0
  6  5  2  0
  7  8  2  0
  7  2  1  0
 10 11  1  0
 11 21  2  0
 12 11  1  0
 12 13  2  0
 13 14  1  0
 14 20  2  0
 14 15  1  0
 16 15  1  1
 16 18  1  0
 16 17  1  0
 17  7  1  0
 18 27  1  0
 19 18  2  0
 21 20  1  0
 23 22  1  0
 23 24  2  0
 25 23  1  0
 26 27  1  0
 26 25  1  6
 28 26  1  0
 29 28  1  0
 30 28  2  0
M  END
$$$$
