EYN.pdb
     RDKit          3D

 30 30  0  0  1  0  0  0  0  0999 V2000
   26.9663  -21.2532  -17.9721 N   0  0  0  0  0  0  0  0  0  0  0  0
   26.3097  -22.5206  -17.7898 C   0  0  1  0  0  0  0  0  0  0  0  0
   27.3371  -23.5938  -18.0257 C   0  0  0  0  0  0  0  0  0  0  0  0
   28.6505  -23.1011  -18.5315 C   0  0  0  0  0  0  0  0  0  0  0  0
   29.4939  -22.7434  -17.3612 C   0  0  0  0  0  0  0  0  0  0  0  0
   30.0240  -23.6194  -16.6211 O   0  0  0  0  0  0  0  0  0  0  0  0
   25.7189  -22.5711  -16.4228 C   0  0  0  0  0  0  0  0  0  0  0  0
   25.0597  -23.5829  -16.0331 O   0  0  0  0  0  0  0  0  0  0  0  0
   29.7436  -21.4221  -17.0193 O   0  0  0  0  0  0  0  0  0  0  0  0
   23.9918  -20.8491   -7.9814 O   0  0  0  0  0  0  0  0  0  0  0  0
   24.4742  -20.7480   -9.2983 C   0  0  0  0  0  0  0  0  0  0  0  0
   25.6422  -21.3688   -9.7003 C   0  0  0  0  0  0  0  0  0  0  0  0
   26.1276  -21.2796  -10.9864 C   0  0  0  0  0  0  0  0  0  0  0  0
   25.4235  -20.5457  -11.9021 C   0  0  0  0  0  0  0  0  0  0  0  0
   25.9051  -20.4257  -13.2837 C   0  0  0  0  0  0  0  0  0  0  0  0
   25.2581  -21.4293  -14.2115 C   0  0  2  0  0  0  0  0  0  0  0  0
   25.8715  -21.4918  -15.5080 N   0  0  0  0  0  0  0  0  0  0  0  0
   23.8074  -21.1104  -14.2833 C   0  0  0  0  0  0  0  0  0  0  0  0
   23.3780  -20.0848  -14.8711 O   0  0  0  0  0  0  0  0  0  0  0  0
   24.2624  -19.9177  -11.5376 C   0  0  0  0  0  0  0  0  0  0  0  0
   23.8061  -20.0235  -10.2585 C   0  0  0  0  0  0  0  0  0  0  0  0
   18.6515  -21.3840  -14.3106 N   0  0  0  0  0  0  0  0  0  0  0  0
   19.1537  -22.6591  -13.9389 C   0  0  0  0  0  0  0  0  0  0  0  0
   18.2559  -23.5585  -13.8007 O   0  0  0  0  0  0  0  0  0  0  0  0
   20.5836  -22.9530  -13.7268 C   0  0  0  0  0  0  0  0  0  0  0  0
   21.3740  -21.6958  -13.8708 C   0  0  2  0  0  0  0  0  0  0  0  0
   22.8098  -21.9364  -13.6963 N   0  0  0  0  0  0  0  0  0  0  0  0
   21.0035  -20.7716  -12.7809 C   0  0  0  0  0  0  0  0  0  0  0  0
   21.8229  -20.5881  -11.6994 O   0  0  0  0  0  0  0  0  0  0  0  0
   19.9302  -20.1412  -12.8323 O   0  0  0  0  0  0  0  0  0  0  0  0
  2  1  1  1
  2  3  1  0
  3  4  1  0
  4  5  1  0
  5  9  1  0
  6  5  2  0
  7  8  2  0
  7  2  1  0
 10 11  1  0
 11 21  2  0
 12 11  1  0
 12 13  2  0
 13 14  1  0
 14 20  2  0
 14 15  1  0
 16 15  1  1
 16 18  1  0
 16 17  1  0
 17  7  1  0
 18 27  1  0
 19 18  2  0
 21 20  1  0
 23 22  1  0
 23 24  2  0
 25 23  1  0
 26 27  1  0
 26 25  1  1
 28 26  1  0
 29 28  1  0
 30 28  2  0
M  END
$$$$
