EYN.pdb
     RDKit          3D

 30 30  0  0  1  0  0  0  0  0999 V2000
   26.3102  -24.3140  -16.1728 N   0  0  0  0  0  0  0  0  0  0  0  0
   25.8894  -22.9439  -16.3012 C   0  0  1  0  0  0  0  0  0  0  0  0
   25.2129  -22.8079  -17.6379 C   0  0  0  0  0  0  0  0  0  0  0  0
   26.1308  -22.8671  -18.8116 C   0  0  0  0  0  0  0  0  0  0  0  0
   26.8632  -21.5765  -18.8936 C   0  0  0  0  0  0  0  0  0  0  0  0
   26.4358  -20.5241  -18.3407 O   0  0  0  0  0  0  0  0  0  0  0  0
   24.9963  -22.5994  -15.1594 C   0  0  0  0  0  0  0  0  0  0  0  0
   24.2747  -23.4834  -14.6045 O   0  0  0  0  0  0  0  0  0  0  0  0
   28.0604  -21.4605  -19.5854 O   0  0  0  0  0  0  0  0  0  0  0  0
   28.6869  -21.3304   -9.2238 O   0  0  0  0  0  0  0  0  0  0  0  0
   27.6749  -20.9258  -10.1122 C   0  0  0  0  0  0  0  0  0  0  0  0
   27.9364  -20.6396  -11.4393 C   0  0  0  0  0  0  0  0  0  0  0  0
   26.9563  -20.2422  -12.3219 C   0  0  0  0  0  0  0  0  0  0  0  0
   25.6717  -20.1265  -11.8645 C   0  0  0  0  0  0  0  0  0  0  0  0
   24.5968  -19.7071  -12.7721 C   0  0  0  0  0  0  0  0  0  0  0  0
   24.0484  -20.8550  -13.5894 C   0  0  2  0  0  0  0  0  0  0  0  0
   24.9199  -21.2723  -14.6511 N   0  0  0  0  0  0  0  0  0  0  0  0
   22.7022  -20.4585  -14.0813 C   0  0  0  0  0  0  0  0  0  0  0  0
   22.5304  -19.9506  -15.2189 O   0  0  0  0  0  0  0  0  0  0  0  0
   25.3775  -20.4022  -10.5557 C   0  0  0  0  0  0  0  0  0  0  0  0
   26.3672  -20.7932   -9.7053 C   0  0  0  0  0  0  0  0  0  0  0  0
   20.5402  -21.7747  -17.3395 N   0  0  0  0  0  0  0  0  0  0  0  0
   19.7694  -21.5274  -16.1729 C   0  0  0  0  0  0  0  0  0  0  0  0
   18.6898  -20.8763  -16.3837 O   0  0  0  0  0  0  0  0  0  0  0  0
   20.1533  -21.9738  -14.8204 C   0  0  0  0  0  0  0  0  0  0  0  0
   20.1946  -20.7973  -13.9038 C   0  0  2  0  0  0  0  0  0  0  0  0
   21.5219  -20.6238  -13.3055 N   0  0  0  0  0  0  0  0  0  0  0  0
   19.2891  -21.0475  -12.7650 C   0  0  0  0  0  0  0  0  0  0  0  0
   17.9758  -20.6627  -12.8073 O   0  0  0  0  0  0  0  0  0  0  0  0
   19.7131  -21.6174  -11.7415 O   0  0  0  0  0  0  0  0  0  0  0  0
  2  1  1  1
  2  3  1  0
  3  4  1  0
  4  5  1  0
  5  9  1  0
  6  5  2  0
  7  8  2  0
  7  2  1  0
 10 11  1  0
 11 21  2  0
 12 11  1  0
 12 13  2  0
 13 14  1  0
 14 20  2  0
 14 15  1  0
 16 15  1  6
 16 18  1  0
 16 17  1  0
 17  7  1  0
 18 27  1  0
 19 18  2  0
 21 20  1  0
 23 22  1  0
 23 24  2  0
 25 23  1  0
 26 27  1  0
 26 25  1  6
 28 26  1  0
 29 28  1  0
 30 28  2  0
M  END
$$$$
