HGL.pdb
     RDKit          3D

 23 23  0  0  1  0  0  0  0  0999 V2000
   18.9925  -10.7337  -17.4001 N   0  0  0  0  0  0  0  0  0  0  0  0
   17.5531  -10.8668  -17.2926 C   0  0  1  0  0  0  0  0  0  0  0  0
   17.2784  -12.3020  -16.9003 C   0  0  0  0  0  0  0  0  0  0  0  0
   17.7897  -13.2429  -17.9291 C   0  0  0  0  0  0  0  0  0  0  0  0
   18.7426  -14.2312  -17.7765 C   0  0  0  0  0  0  0  0  0  0  0  0
   18.9233  -14.8683  -18.9644 N   0  0  0  0  0  0  0  0  0  0  0  0
   18.0880  -14.2835  -19.8597 C   0  0  0  0  0  0  0  0  0  0  0  0
   17.4150  -13.3148  -19.2352 N   0  0  0  0  0  0  0  0  0  0  0  0
   17.0607   -9.8969  -16.3203 C   0  0  0  0  0  0  0  0  0  0  0  0
   15.8342   -9.8386  -16.0644 O   0  0  0  0  0  0  0  0  0  0  0  0
   17.8954   -8.9791  -15.6149 N   0  0  0  0  0  0  0  0  0  0  0  0
   17.4081   -8.0692  -14.6232 C   0  0  0  0  0  0  0  0  0  0  0  0
   18.5597   -7.2743  -14.0938 C   0  0  0  0  0  0  0  0  0  0  0  0
   18.3817   -6.4734  -13.1144 O   0  0  0  0  0  0  0  0  0  0  0  0
   21.2826   -8.9521  -11.7710 C   0  0  0  0  0  0  0  0  0  0  0  0
   21.6793   -9.1742  -13.2393 C   0  0  2  0  0  0  0  0  0  0  0  0
   22.7749  -10.2127  -13.1971 C   0  0  0  0  0  0  0  0  0  0  0  0
   22.0965   -7.8491  -13.7629 C   0  0  0  0  0  0  0  0  0  0  0  0
   20.9966   -6.8290  -13.8951 C   0  0  2  0  0  0  0  0  0  0  0  0
   19.8549   -7.3496  -14.6119 N   0  0  0  0  0  0  0  0  0  0  0  0
   21.3937   -5.5535  -14.4821 C   0  0  0  0  0  0  0  0  0  0  0  0
   20.7253   -4.9834  -15.5566 O   0  0  0  0  0  0  0  0  0  0  0  0
   22.3751   -4.9236  -14.0191 O   0  0  0  0  0  0  0  0  0  0  0  0
  2  1  1  1
  2  3  1  0
  3  4  1  0
  4  5  2  0
  5  6  1  0
  7  6  1  0
  8  4  1  0
  8  7  2  0
  9  2  1  0
  9 10  2  0
 11  9  1  0
 12 11  1  0
 12 13  1  0
 13 20  1  0
 14 13  2  0
 16 15  1  1
 16 17  1  0
 18 16  1  0
 19 18  1  6
 20 19  1  0
 21 19  1  0
 21 22  1  0
 23 21  2  0
M  END
$$$$
