HGL.pdb
     RDKit          3D

 23 23  0  0  1  0  0  0  0  0999 V2000
   18.2840  -10.8898  -15.1045 N   0  0  0  0  0  0  0  0  0  0  0  0
   17.2236  -10.3426  -14.2815 C   0  0  1  0  0  0  0  0  0  0  0  0
   17.1184  -11.2321  -13.0620 C   0  0  0  0  0  0  0  0  0  0  0  0
   16.7671  -12.6230  -13.4455 C   0  0  0  0  0  0  0  0  0  0  0  0
   15.5944  -13.0747  -14.0189 C   0  0  0  0  0  0  0  0  0  0  0  0
   15.6766  -14.4186  -14.2107 N   0  0  0  0  0  0  0  0  0  0  0  0
   16.8952  -14.8101  -13.7600 C   0  0  0  0  0  0  0  0  0  0  0  0
   17.5402  -13.7339  -13.3051 N   0  0  0  0  0  0  0  0  0  0  0  0
   17.5431   -8.9559  -13.9604 C   0  0  0  0  0  0  0  0  0  0  0  0
   18.7088   -8.6491  -13.6136 O   0  0  0  0  0  0  0  0  0  0  0  0
   16.5996   -7.8864  -14.0124 N   0  0  0  0  0  0  0  0  0  0  0  0
   16.9347   -6.5228  -13.7351 C   0  0  0  0  0  0  0  0  0  0  0  0
   16.4140   -6.1669  -12.3784 C   0  0  0  0  0  0  0  0  0  0  0  0
   16.4438   -4.9515  -11.9853 O   0  0  0  0  0  0  0  0  0  0  0  0
   12.8916   -8.5684   -7.9571 C   0  0  0  0  0  0  0  0  0  0  0  0
   13.7225   -7.3440   -8.3728 C   0  0  2  0  0  0  0  0  0  0  0  0
   12.7484   -6.1900   -8.3724 C   0  0  0  0  0  0  0  0  0  0  0  0
   14.3051   -7.6672   -9.6995 C   0  0  0  0  0  0  0  0  0  0  0  0
   15.3569   -6.7104  -10.1959 C   0  0  2  0  0  0  0  0  0  0  0  0
   15.8816   -7.0995  -11.4849 N   0  0  0  0  0  0  0  0  0  0  0  0
   16.4647   -6.4674   -9.2778 C   0  0  0  0  0  0  0  0  0  0  0  0
   16.4254   -5.4816   -8.3015 O   0  0  0  0  0  0  0  0  0  0  0  0
   17.5079   -7.1607   -9.3495 O   0  0  0  0  0  0  0  0  0  0  0  0
  2  1  1  6
  2  3  1  0
  3  4  1  0
  4  5  2  0
  5  6  1  0
  7  6  1  0
  8  4  1  0
  8  7  2  0
  9  2  1  0
  9 10  2  0
 11  9  1  0
 12 11  1  0
 12 13  1  0
 13 20  1  0
 14 13  2  0
 16 15  1  6
 16 17  1  0
 18 16  1  0
 19 18  1  1
 20 19  1  0
 21 19  1  0
 21 22  1  0
 23 21  2  0
M  END
$$$$
