HGL.pdb
     RDKit          3D

 23 23  0  0  1  0  0  0  0  0999 V2000
   18.5696  -13.7741  -18.6611 N   0  0  0  0  0  0  0  0  0  0  0  0
   19.8734  -13.5999  -19.2700 C   0  0  1  0  0  0  0  0  0  0  0  0
   19.7314  -14.0022  -20.7217 C   0  0  0  0  0  0  0  0  0  0  0  0
   19.3959  -15.4436  -20.8450 C   0  0  0  0  0  0  0  0  0  0  0  0
   18.2592  -16.0065  -21.3918 C   0  0  0  0  0  0  0  0  0  0  0  0
   18.3445  -17.3613  -21.3091 N   0  0  0  0  0  0  0  0  0  0  0  0
   19.5292  -17.6490  -20.7130 C   0  0  0  0  0  0  0  0  0  0  0  0
   20.1510  -16.5002  -20.4390 N   0  0  0  0  0  0  0  0  0  0  0  0
   20.2963  -12.2151  -19.0921 C   0  0  0  0  0  0  0  0  0  0  0  0
   21.4399  -11.8597  -19.4650 O   0  0  0  0  0  0  0  0  0  0  0  0
   19.4813  -11.2002  -18.5069 N   0  0  0  0  0  0  0  0  0  0  0  0
   19.8655   -9.8235  -18.4320 C   0  0  0  0  0  0  0  0  0  0  0  0
   19.9666   -9.4309  -16.9918 C   0  0  0  0  0  0  0  0  0  0  0  0
   19.1141   -9.8763  -16.1508 O   0  0  0  0  0  0  0  0  0  0  0  0
   23.1219   -9.6169  -12.2633 C   0  0  0  0  0  0  0  0  0  0  0  0
   22.1231   -8.6235  -12.8781 C   0  0  2  0  0  0  0  0  0  0  0  0
   20.8886   -8.7226  -12.0141 C   0  0  0  0  0  0  0  0  0  0  0  0
   21.9319   -9.0447  -14.2888 C   0  0  0  0  0  0  0  0  0  0  0  0
   20.9926   -8.1903  -15.0986 C   0  0  2  0  0  0  0  0  0  0  0  0
   20.9583   -8.5858  -16.4881 N   0  0  0  0  0  0  0  0  0  0  0  0
   21.2236   -6.7521  -15.0122 C   0  0  0  0  0  0  0  0  0  0  0  0
   20.6504   -5.9596  -14.0273 O   0  0  0  0  0  0  0  0  0  0  0  0
   21.9648   -6.1803  -15.8476 O   0  0  0  0  0  0  0  0  0  0  0  0
  2  1  1  1
  2  3  1  0
  3  4  1  0
  4  5  2  0
  5  6  1  0
  7  6  1  0
  8  4  1  0
  8  7  2  0
  9  2  1  0
  9 10  2  0
 11  9  1  0
 12 11  1  0
 12 13  1  0
 13 20  1  0
 14 13  2  0
 16 15  1  1
 16 17  1  0
 18 16  1  0
 19 18  1  1
 20 19  1  0
 21 19  1  0
 21 22  1  0
 23 21  2  0
M  END
$$$$
