HGL.pdb
     RDKit          3D

 23 23  0  0  1  0  0  0  0  0999 V2000
   14.7080  -11.3670  -13.3054 N   0  0  0  0  0  0  0  0  0  0  0  0
   15.6558  -10.7635  -14.2211 C   0  0  1  0  0  0  0  0  0  0  0  0
   15.4755  -11.4591  -15.5526 C   0  0  0  0  0  0  0  0  0  0  0  0
   15.7904  -12.9063  -15.4448 C   0  0  0  0  0  0  0  0  0  0  0  0
   14.9336  -13.9389  -15.1166 C   0  0  0  0  0  0  0  0  0  0  0  0
   15.6198  -15.1131  -15.1292 N   0  0  0  0  0  0  0  0  0  0  0  0
   16.9019  -14.8202  -15.4637 C   0  0  0  0  0  0  0  0  0  0  0  0
   16.9962  -13.5021  -15.6505 N   0  0  0  0  0  0  0  0  0  0  0  0
   15.4061   -9.3273  -14.2801 C   0  0  0  0  0  0  0  0  0  0  0  0
   14.2325   -8.8944  -14.1882 O   0  0  0  0  0  0  0  0  0  0  0  0
   16.4289   -8.3449  -14.4398 N   0  0  0  0  0  0  0  0  0  0  0  0
   16.1635   -6.9503  -14.6227 C   0  0  0  0  0  0  0  0  0  0  0  0
   15.9733   -6.3178  -13.2803 C   0  0  0  0  0  0  0  0  0  0  0  0
   15.9245   -5.0451  -13.1790 O   0  0  0  0  0  0  0  0  0  0  0  0
   15.0379   -7.0205   -7.8840 C   0  0  0  0  0  0  0  0  0  0  0  0
   14.0635   -6.2968   -8.8271 C   0  0  2  0  0  0  0  0  0  0  0  0
   12.6895   -6.5961   -8.2768 C   0  0  0  0  0  0  0  0  0  0  0  0
   14.3216   -6.8358  -10.1861 C   0  0  0  0  0  0  0  0  0  0  0  0
   15.6141   -6.3973  -10.8225 C   0  0  2  0  0  0  0  0  0  0  0  0
   15.8414   -7.0444  -12.0944 N   0  0  0  0  0  0  0  0  0  0  0  0
   16.8027   -6.5424   -9.9885 C   0  0  0  0  0  0  0  0  0  0  0  0
   17.1894   -5.5833   -9.0628 O   0  0  0  0  0  0  0  0  0  0  0  0
   17.5242   -7.5638  -10.0898 O   0  0  0  0  0  0  0  0  0  0  0  0
  2  1  1  1
  2  3  1  0
  3  4  1  0
  4  5  2  0
  5  6  1  0
  7  6  1  0
  8  4  1  0
  8  7  2  0
  9  2  1  0
  9 10  2  0
 11  9  1  0
 12 11  1  0
 12 13  1  0
 13 20  1  0
 14 13  2  0
 16 15  1  1
 16 17  1  0
 18 16  1  0
 19 18  1  1
 20 19  1  0
 21 19  1  0
 21 22  1  0
 23 21  2  0
M  END
$$$$
