HGL.pdb
     RDKit          3D

 23 23  0  0  1  0  0  0  0  0999 V2000
   32.0905   -6.7697  -15.8078 N   0  0  0  0  0  0  0  0  0  0  0  0
   33.3573   -6.9096  -16.4982 C   0  0  1  0  0  0  0  0  0  0  0  0
   33.0319   -7.1770  -17.9515 C   0  0  0  0  0  0  0  0  0  0  0  0
   32.3351   -8.4786  -18.1108 C   0  0  0  0  0  0  0  0  0  0  0  0
   30.9873   -8.7431  -17.9646 C   0  0  0  0  0  0  0  0  0  0  0  0
   30.7608  -10.0638  -18.1975 N   0  0  0  0  0  0  0  0  0  0  0  0
   31.9605  -10.6271  -18.4887 C   0  0  0  0  0  0  0  0  0  0  0  0
   32.8949   -9.6756  -18.4351 N   0  0  0  0  0  0  0  0  0  0  0  0
   34.1422   -5.6968  -16.2948 C   0  0  0  0  0  0  0  0  0  0  0  0
   35.2893   -5.6057  -16.7940 O   0  0  0  0  0  0  0  0  0  0  0  0
   33.6898   -4.5690  -15.5465 N   0  0  0  0  0  0  0  0  0  0  0  0
   34.4031   -3.3301  -15.4752 C   0  0  0  0  0  0  0  0  0  0  0  0
   33.5814   -2.2647  -16.1295 C   0  0  0  0  0  0  0  0  0  0  0  0
   32.7947   -1.5464  -15.4242 O   0  0  0  0  0  0  0  0  0  0  0  0
   33.7772    2.7815  -18.3844 C   0  0  0  0  0  0  0  0  0  0  0  0
   32.8191    1.5840  -18.4869 C   0  0  2  0  0  0  0  0  0  0  0  0
   31.6023    1.9855  -17.6877 C   0  0  0  0  0  0  0  0  0  0  0  0
   33.5578    0.4128  -17.9514 C   0  0  0  0  0  0  0  0  0  0  0  0
   32.8550   -0.9125  -18.0840 C   0  0  2  0  0  0  0  0  0  0  0  0
   33.6160   -1.9929  -17.4993 N   0  0  0  0  0  0  0  0  0  0  0  0
   32.4615   -1.2788  -19.4405 C   0  0  0  0  0  0  0  0  0  0  0  0
   31.1886   -1.0419  -19.9406 O   0  0  0  0  0  0  0  0  0  0  0  0
   33.2846   -1.8319  -20.2091 O   0  0  0  0  0  0  0  0  0  0  0  0
  2  1  1  1
  2  3  1  0
  3  4  1  0
  4  5  2  0
  5  6  1  0
  7  6  1  0
  8  4  1  0
  8  7  2  0
  9  2  1  0
  9 10  2  0
 11  9  1  0
 12 11  1  0
 12 13  1  0
 13 20  1  0
 14 13  2  0
 16 15  1  1
 16 17  1  0
 18 16  1  0
 19 18  1  6
 20 19  1  0
 21 19  1  0
 21 22  1  0
 23 21  2  0
M  END
$$$$
