HGL.pdb
     RDKit          3D

 23 23  0  0  1  0  0  0  0  0999 V2000
   17.3242  -11.0066  -18.1107 N   0  0  0  0  0  0  0  0  0  0  0  0
   18.1545  -10.9497  -16.9239 C   0  0  1  0  0  0  0  0  0  0  0  0
   19.5361  -11.4062  -17.3390 C   0  0  0  0  0  0  0  0  0  0  0  0
   19.4994  -12.7862  -17.8863 C   0  0  0  0  0  0  0  0  0  0  0  0
   19.8553  -13.2064  -19.1531 C   0  0  0  0  0  0  0  0  0  0  0  0
   19.6733  -14.5508  -19.2481 N   0  0  0  0  0  0  0  0  0  0  0  0
   19.2053  -14.9740  -18.0467 C   0  0  0  0  0  0  0  0  0  0  0  0
   19.1040  -13.9161  -17.2393 N   0  0  0  0  0  0  0  0  0  0  0  0
   18.1290   -9.5904  -16.3947 C   0  0  0  0  0  0  0  0  0  0  0  0
   18.1057   -8.6150  -17.1829 O   0  0  0  0  0  0  0  0  0  0  0  0
   18.1285   -9.2754  -15.0028 N   0  0  0  0  0  0  0  0  0  0  0  0
   18.0810   -7.9379  -14.4953 C   0  0  0  0  0  0  0  0  0  0  0  0
   19.3499   -7.6609  -13.7527 C   0  0  0  0  0  0  0  0  0  0  0  0
   19.9908   -8.6233  -13.2091 O   0  0  0  0  0  0  0  0  0  0  0  0
   23.3685   -5.1839  -15.9509 C   0  0  0  0  0  0  0  0  0  0  0  0
   23.2726   -6.5890  -15.3354 C   0  0  2  0  0  0  0  0  0  0  0  0
   23.8635   -7.5132  -16.3733 C   0  0  0  0  0  0  0  0  0  0  0  0
   21.8353   -6.8183  -15.0428 C   0  0  0  0  0  0  0  0  0  0  0  0
   21.3069   -6.1302  -13.8118 C   0  0  2  0  0  0  0  0  0  0  0  0
   19.8990   -6.3845  -13.6084 N   0  0  0  0  0  0  0  0  0  0  0  0
   21.5520   -4.6933  -13.7446 C   0  0  0  0  0  0  0  0  0  0  0  0
   22.6486   -4.1507  -13.0893 O   0  0  0  0  0  0  0  0  0  0  0  0
   20.7571   -3.8910  -14.2911 O   0  0  0  0  0  0  0  0  0  0  0  0
  2  1  1  6
  2  3  1  0
  3  4  1  0
  4  5  2  0
  5  6  1  0
  7  6  1  0
  8  4  1  0
  8  7  2  0
  9  2  1  0
  9 10  2  0
 11  9  1  0
 12 11  1  0
 12 13  1  0
 13 20  1  0
 14 13  2  0
 16 15  1  6
 16 17  1  0
 18 16  1  0
 19 18  1  6
 20 19  1  0
 21 19  1  0
 21 22  1  0
 23 21  2  0
M  END
$$$$
