HGL.pdb
     RDKit          3D

 23 23  0  0  1  0  0  0  0  0999 V2000
   25.6104  -20.8408   -7.3981 N   0  0  0  0  0  0  0  0  0  0  0  0
   26.5516  -20.1090   -8.2225 C   0  0  1  0  0  0  0  0  0  0  0  0
   27.9339  -20.4529   -7.7122 C   0  0  0  0  0  0  0  0  0  0  0  0
   28.1181  -19.9844   -6.3152 C   0  0  0  0  0  0  0  0  0  0  0  0
   28.3771  -20.7456   -5.1921 C   0  0  0  0  0  0  0  0  0  0  0  0
   28.4758  -19.9291   -4.1089 N   0  0  0  0  0  0  0  0  0  0  0  0
   28.2798  -18.6604   -4.5489 C   0  0  0  0  0  0  0  0  0  0  0  0
   28.0671  -18.7011   -5.8658 N   0  0  0  0  0  0  0  0  0  0  0  0
   26.3421  -20.4771   -9.6185 C   0  0  0  0  0  0  0  0  0  0  0  0
   26.9973  -19.9015  -10.5200 O   0  0  0  0  0  0  0  0  0  0  0  0
   25.4180  -21.4749  -10.0512 N   0  0  0  0  0  0  0  0  0  0  0  0
   25.1809  -21.7888  -11.4274 C   0  0  0  0  0  0  0  0  0  0  0  0
   23.9827  -21.0243  -11.8946 C   0  0  0  0  0  0  0  0  0  0  0  0
   23.2928  -20.3504  -11.0565 O   0  0  0  0  0  0  0  0  0  0  0  0
   22.8796  -17.5477  -14.7156 C   0  0  0  0  0  0  0  0  0  0  0  0
   23.3751  -18.8464  -15.3716 C   0  0  2  0  0  0  0  0  0  0  0  0
   23.5073  -18.5188  -16.8398 C   0  0  0  0  0  0  0  0  0  0  0  0
   22.3638  -19.8857  -15.0535 C   0  0  0  0  0  0  0  0  0  0  0  0
   22.3285  -20.3375  -13.6173 C   0  0  2  0  0  0  0  0  0  0  0  0
   23.5533  -20.9955  -13.2236 N   0  0  0  0  0  0  0  0  0  0  0  0
   21.1917  -21.1769  -13.2536 C   0  0  0  0  0  0  0  0  0  0  0  0
   21.2911  -22.5549  -13.1199 O   0  0  0  0  0  0  0  0  0  0  0  0
   20.0665  -20.6616  -13.0476 O   0  0  0  0  0  0  0  0  0  0  0  0
  2  1  1  1
  2  3  1  0
  3  4  1  0
  4  5  2  0
  5  6  1  0
  7  6  1  0
  8  4  1  0
  8  7  2  0
  9  2  1  0
  9 10  2  0
 11  9  1  0
 12 11  1  0
 12 13  1  0
 13 20  1  0
 14 13  2  0
 16 15  1  1
 16 17  1  0
 18 16  1  0
 19 18  1  6
 20 19  1  0
 21 19  1  0
 21 22  1  0
 23 21  2  0
M  END
$$$$
