WPI.pdb
     RDKit          3D

 30 32  0  0  1  0  0  0  0  0999 V2000
    5.7761  -17.3414   24.5841 N   0  0  0  0  0  0  0  0  0  0  0  0
    6.8897  -16.4734   24.2330 C   0  0  1  0  0  0  0  0  0  0  0  0
    7.2383  -15.7300   25.4981 C   0  0  0  0  0  0  0  0  0  0  0  0
    6.3297  -14.6402   25.8667 C   0  0  0  0  0  0  0  0  0  0  0  0
    5.0305  -14.7574   26.3378 C   0  0  0  0  0  0  0  0  0  0  0  0
    4.5038  -13.5362   26.5467 N   0  0  0  0  0  0  0  0  0  0  0  0
    5.4390  -12.6172   26.2199 C   0  0  0  0  0  0  0  0  0  0  0  0
    5.4114  -11.2507   26.2609 C   0  0  0  0  0  0  0  0  0  0  0  0
    6.5387  -10.5177   25.8743 C   0  0  0  0  0  0  0  0  0  0  0  0
    7.6756  -11.1515   25.4532 C   0  0  0  0  0  0  0  0  0  0  0  0
    7.6753  -12.5267   25.4215 C   0  0  0  0  0  0  0  0  0  0  0  0
    6.5769  -13.2905   25.7966 C   0  0  0  0  0  0  0  0  0  0  0  0
    7.9926  -17.1373   23.5555 C   0  0  0  0  0  0  0  0  0  0  0  0
    7.8514  -18.3929   23.3570 O   0  0  0  0  0  0  0  0  0  0  0  0
    9.1977  -16.5465   23.0958 N   0  0  0  0  0  0  0  0  0  0  0  0
    9.4315  -15.2018   22.6144 C   0  0  0  0  0  0  0  0  0  0  0  0
   10.5642  -15.3135   21.6211 C   0  0  0  0  0  0  0  0  0  0  0  0
   11.0568  -16.7155   21.7457 C   0  0  0  0  0  0  0  0  0  0  0  0
   10.4758  -17.2295   23.0212 C   0  0  1  0  0  0  0  0  0  0  0  0
   11.3250  -17.0212   24.2013 C   0  0  0  0  0  0  0  0  0  0  0  0
   12.4529  -16.4972   24.0096 O   0  0  0  0  0  0  0  0  0  0  0  0
    9.7394  -13.7425   27.4526 C   0  0  0  0  0  0  0  0  0  0  0  0
   10.5634  -14.6939   26.6055 C   0  0  0  0  0  0  0  0  0  0  0  0
   11.0440  -15.8409   27.4647 C   0  0  2  0  0  0  0  0  0  0  0  0
   11.8720  -15.2897   28.5804 C   0  0  0  0  0  0  0  0  0  0  0  0
   11.7468  -16.9033   26.6770 C   0  0  2  0  0  0  0  0  0  0  0  0
   10.9972  -17.3532   25.5349 N   0  0  0  0  0  0  0  0  0  0  0  0
   12.1877  -17.9993   27.5477 C   0  0  0  0  0  0  0  0  0  0  0  0
   11.4755  -19.0127   27.7587 O   0  0  0  0  0  0  0  0  0  0  0  0
   13.4316  -17.9885   28.2014 O   0  0  0  0  0  0  0  0  0  0  0  0
  2  1  1  1
  2 13  1  0
  2  3  1  0
  3  4  1  0
  4  5  2  0
  5  6  1  0
  7  8  2  0
  7  6  1  0
  9  8  1  0
 10  9  2  0
 11 10  1  0
 11 12  2  0
 12  4  1  0
 12  7  1  0
 13 14  2  0
 15 13  1  0
 15 19  1  0
 16 17  1  0
 16 15  1  0
 17 18  1  0
 18 19  1  0
 19 20  1  1
 20 21  2  0
 22 23  1  0
 23 24  1  0
 24 26  1  0
 24 25  1  1
 26 28  1  0
 26 27  1  6
 27 20  1  0
 28 30  1  0
 29 28  2  0
M  END
$$$$
