WPI.pdb
     RDKit          3D

 30 32  0  0  1  0  0  0  0  0999 V2000
    5.5946  -18.6837   24.3275 N   0  0  0  0  0  0  0  0  0  0  0  0
    6.1927  -17.3580   24.2906 C   0  0  1  0  0  0  0  0  0  0  0  0
    6.2876  -16.9163   25.7295 C   0  0  0  0  0  0  0  0  0  0  0  0
    5.8197  -15.5555   26.0096 C   0  0  0  0  0  0  0  0  0  0  0  0
    4.5047  -15.1182   26.0674 C   0  0  0  0  0  0  0  0  0  0  0  0
    4.4688  -13.7978   26.3272 N   0  0  0  0  0  0  0  0  0  0  0  0
    5.7422  -13.3605   26.4416 C   0  0  0  0  0  0  0  0  0  0  0  0
    6.2469  -12.1180   26.7088 C   0  0  0  0  0  0  0  0  0  0  0  0
    7.6309  -11.9290   26.7888 C   0  0  0  0  0  0  0  0  0  0  0  0
    8.4926  -12.9751   26.6026 C   0  0  0  0  0  0  0  0  0  0  0  0
    7.9574  -14.2137   26.3346 C   0  0  0  0  0  0  0  0  0  0  0  0
    6.5898  -14.4426   26.2467 C   0  0  0  0  0  0  0  0  0  0  0  0
    7.4154  -17.2602   23.5086 C   0  0  0  0  0  0  0  0  0  0  0  0
    7.9541  -18.3707   23.1732 O   0  0  0  0  0  0  0  0  0  0  0  0
    8.0688  -16.0753   23.0820 N   0  0  0  0  0  0  0  0  0  0  0  0
    7.6385  -14.6989   23.2045 C   0  0  0  0  0  0  0  0  0  0  0  0
    8.2417  -13.9747   22.0238 C   0  0  0  0  0  0  0  0  0  0  0  0
    9.1675  -14.9589   21.3927 C   0  0  0  0  0  0  0  0  0  0  0  0
    9.3529  -16.0380   22.4074 C   0  0  1  0  0  0  0  0  0  0  0  0
   10.4891  -15.8285   23.3142 C   0  0  0  0  0  0  0  0  0  0  0  0
   11.6127  -15.6230   22.7861 O   0  0  0  0  0  0  0  0  0  0  0  0
    9.8796  -13.9231   28.5163 C   0  0  0  0  0  0  0  0  0  0  0  0
   10.2445  -14.1590   27.0628 C   0  0  0  0  0  0  0  0  0  0  0  0
   11.2500  -15.2843   26.9753 C   0  0  2  0  0  0  0  0  0  0  0  0
   12.4429  -14.9263   27.8016 C   0  0  0  0  0  0  0  0  0  0  0  0
   11.5965  -15.6465   25.5640 C   0  0  2  0  0  0  0  0  0  0  0  0
   10.4427  -15.8353   24.7262 N   0  0  0  0  0  0  0  0  0  0  0  0
   12.5307  -16.7778   25.5251 C   0  0  0  0  0  0  0  0  0  0  0  0
   12.1388  -17.9700   25.5838 O   0  0  0  0  0  0  0  0  0  0  0  0
   13.9211  -16.6035   25.4201 O   0  0  0  0  0  0  0  0  0  0  0  0
  2  1  1  1
  2 13  1  0
  2  3  1  0
  3  4  1  0
  4  5  2  0
  5  6  1  0
  7  8  2  0
  7  6  1  0
  9  8  1  0
 10  9  2  0
 11 10  1  0
 11 12  2  0
 12  4  1  0
 12  7  1  0
 13 14  2  0
 15 13  1  0
 15 19  1  0
 16 17  1  0
 16 15  1  0
 17 18  1  0
 18 19  1  0
 19 20  1  1
 20 21  2  0
 22 23  1  0
 23 24  1  0
 24 26  1  0
 24 25  1  1
 26 28  1  0
 26 27  1  6
 27 20  1  0
 28 30  1  0
 29 28  2  0
M  END
$$$$
