WPI.pdb
     RDKit          3D

 30 32  0  0  1  0  0  0  0  0999 V2000
    6.1440  -18.4651   25.4084 N   0  0  0  0  0  0  0  0  0  0  0  0
    6.1200  -17.4972   24.3225 C   0  0  1  0  0  0  0  0  0  0  0  0
    5.5474  -16.2351   24.9174 C   0  0  0  0  0  0  0  0  0  0  0  0
    6.3834  -15.5681   25.9202 C   0  0  0  0  0  0  0  0  0  0  0  0
    7.2446  -16.1699   26.8257 C   0  0  0  0  0  0  0  0  0  0  0  0
    7.8241  -15.2351   27.6021 N   0  0  0  0  0  0  0  0  0  0  0  0
    7.3562  -14.0266   27.2195 C   0  0  0  0  0  0  0  0  0  0  0  0
    7.6338  -12.7680   27.6761 C   0  0  0  0  0  0  0  0  0  0  0  0
    7.0134  -11.6597   27.0891 C   0  0  0  0  0  0  0  0  0  0  0  0
    6.1275  -11.8172   26.0586 C   0  0  0  0  0  0  0  0  0  0  0  0
    5.8666  -13.0945   25.6198 C   0  0  0  0  0  0  0  0  0  0  0  0
    6.4612  -14.2204   26.1760 C   0  0  0  0  0  0  0  0  0  0  0  0
    7.3763  -17.3536   23.6034 C   0  0  0  0  0  0  0  0  0  0  0  0
    8.0666  -18.4217   23.4664 O   0  0  0  0  0  0  0  0  0  0  0  0
    7.9136  -16.1661   23.0430 N   0  0  0  0  0  0  0  0  0  0  0  0
    7.3757  -14.8226   23.0591 C   0  0  0  0  0  0  0  0  0  0  0  0
    7.8735  -14.1670   21.7923 C   0  0  0  0  0  0  0  0  0  0  0  0
    8.8539  -15.1298   21.2129 C   0  0  0  0  0  0  0  0  0  0  0  0
    9.1647  -16.0910   22.3120 C   0  0  1  0  0  0  0  0  0  0  0  0
   10.3121  -15.7082   23.1453 C   0  0  0  0  0  0  0  0  0  0  0  0
   10.7521  -14.5370   23.0104 O   0  0  0  0  0  0  0  0  0  0  0  0
    9.9317  -14.2841   27.7377 C   0  0  0  0  0  0  0  0  0  0  0  0
   10.6172  -14.4346   26.3927 C   0  0  0  0  0  0  0  0  0  0  0  0
   11.3904  -15.7332   26.3674 C   0  0  2  0  0  0  0  0  0  0  0  0
   12.4249  -15.6960   27.4457 C   0  0  0  0  0  0  0  0  0  0  0  0
   11.9564  -16.0471   25.0167 C   0  0  2  0  0  0  0  0  0  0  0  0
   10.9715  -16.5301   24.0864 N   0  0  0  0  0  0  0  0  0  0  0  0
   13.1269  -16.9254   25.1277 C   0  0  0  0  0  0  0  0  0  0  0  0
   14.2450  -16.5026   25.5144 O   0  0  0  0  0  0  0  0  0  0  0  0
   13.0753  -18.2934   24.8101 O   0  0  0  0  0  0  0  0  0  0  0  0
  2  1  1  1
  2 13  1  0
  2  3  1  0
  3  4  1  0
  4  5  2  0
  5  6  1  0
  7  8  2  0
  7  6  1  0
  9  8  1  0
 10  9  2  0
 11 10  1  0
 11 12  2  0
 12  4  1  0
 12  7  1  0
 13 14  2  0
 15 13  1  0
 15 19  1  0
 16 17  1  0
 16 15  1  0
 17 18  1  0
 18 19  1  0
 19 20  1  1
 20 21  2  0
 22 23  1  0
 23 24  1  0
 24 26  1  0
 24 25  1  1
 26 28  1  0
 26 27  1  6
 27 20  1  0
 28 30  1  0
 29 28  2  0
M  END
$$$$
