WPI.pdb
     RDKit          3D

 30 32  0  0  1  0  0  0  0  0999 V2000
    7.0808  -20.3433   22.6323 N   0  0  0  0  0  0  0  0  0  0  0  0
    6.6153  -18.9724   22.4887 C   0  0  1  0  0  0  0  0  0  0  0  0
    5.5760  -18.7826   23.5650 C   0  0  0  0  0  0  0  0  0  0  0  0
    6.0946  -18.5671   24.9193 C   0  0  0  0  0  0  0  0  0  0  0  0
    6.5066  -17.3654   25.4759 C   0  0  0  0  0  0  0  0  0  0  0  0
    6.9416  -17.5653   26.7342 N   0  0  0  0  0  0  0  0  0  0  0  0
    6.8210  -18.8819   27.0130 C   0  0  0  0  0  0  0  0  0  0  0  0
    7.1102  -19.5927   28.1448 C   0  0  0  0  0  0  0  0  0  0  0  0
    6.8761  -20.9716   28.1822 C   0  0  0  0  0  0  0  0  0  0  0  0
    6.3589  -21.6238   27.0965 C   0  0  0  0  0  0  0  0  0  0  0  0
    6.0778  -20.8842   25.9713 C   0  0  0  0  0  0  0  0  0  0  0  0
    6.2961  -19.5142   25.8940 C   0  0  0  0  0  0  0  0  0  0  0  0
    7.6692  -17.9714   22.4323 C   0  0  0  0  0  0  0  0  0  0  0  0
    8.8602  -18.4041   22.6057 O   0  0  0  0  0  0  0  0  0  0  0  0
    7.5188  -16.5786   22.2079 N   0  0  0  0  0  0  0  0  0  0  0  0
    6.3066  -15.7957   22.0975 C   0  0  0  0  0  0  0  0  0  0  0  0
    6.6434  -14.6472   21.1757 C   0  0  0  0  0  0  0  0  0  0  0  0
    8.1179  -14.7309   20.9692 C   0  0  0  0  0  0  0  0  0  0  0  0
    8.6178  -15.6467   22.0369 C   0  0  1  0  0  0  0  0  0  0  0  0
    9.0155  -14.9702   23.2784 C   0  0  0  0  0  0  0  0  0  0  0  0
   10.0615  -14.2717   23.2399 O   0  0  0  0  0  0  0  0  0  0  0  0
    5.5185  -13.0555   27.3591 C   0  0  0  0  0  0  0  0  0  0  0  0
    6.4684  -14.0665   26.7449 C   0  0  0  0  0  0  0  0  0  0  0  0
    7.6632  -13.3437   26.1664 C   0  0  2  0  0  0  0  0  0  0  0  0
    7.1859  -12.3933   25.1162 C   0  0  0  0  0  0  0  0  0  0  0  0
    8.7276  -14.2774   25.6780 C   0  0  2  0  0  0  0  0  0  0  0  0
    8.3352  -15.0278   24.5153 N   0  0  0  0  0  0  0  0  0  0  0  0
    9.2285  -15.1214   26.7691 C   0  0  0  0  0  0  0  0  0  0  0  0
    9.0534  -16.3654   26.7858 O   0  0  0  0  0  0  0  0  0  0  0  0
    9.9352  -14.5961   27.8644 O   0  0  0  0  0  0  0  0  0  0  0  0
  2  1  1  1
  2 13  1  0
  2  3  1  0
  3  4  1  0
  4  5  2  0
  5  6  1  0
  7  8  2  0
  7  6  1  0
  9  8  1  0
 10  9  2  0
 11 10  1  0
 11 12  2  0
 12  4  1  0
 12  7  1  0
 13 14  2  0
 15 13  1  0
 15 19  1  0
 16 17  1  0
 16 15  1  0
 17 18  1  0
 18 19  1  0
 19 20  1  1
 20 21  2  0
 22 23  1  0
 23 24  1  0
 24 26  1  0
 24 25  1  6
 26 28  1  0
 26 27  1  6
 27 20  1  0
 28 30  1  0
 29 28  2  0
M  END
$$$$
