WPI.pdb
     RDKit          3D

 30 32  0  0  1  0  0  0  0  0999 V2000
    5.4281  -18.3500   24.1453 N   0  0  0  0  0  0  0  0  0  0  0  0
    6.2539  -17.1532   24.0971 C   0  0  1  0  0  0  0  0  0  0  0  0
    6.5426  -16.8020   25.5352 C   0  0  0  0  0  0  0  0  0  0  0  0
    6.0911  -15.4766   25.9695 C   0  0  0  0  0  0  0  0  0  0  0  0
    4.7947  -15.0951   26.2815 C   0  0  0  0  0  0  0  0  0  0  0  0
    4.7658  -13.7919   26.6180 N   0  0  0  0  0  0  0  0  0  0  0  0
    6.0257  -13.3110   26.5320 C   0  0  0  0  0  0  0  0  0  0  0  0
    6.5322  -12.0647   26.7766 C   0  0  0  0  0  0  0  0  0  0  0  0
    7.9023  -11.8255   26.6234 C   0  0  0  0  0  0  0  0  0  0  0  0
    8.7482  -12.8260   26.2301 C   0  0  0  0  0  0  0  0  0  0  0  0
    8.2115  -14.0697   25.9904 C   0  0  0  0  0  0  0  0  0  0  0  0
    6.8574  -14.3476   26.1306 C   0  0  0  0  0  0  0  0  0  0  0  0
    7.4074  -17.2412   23.2153 C   0  0  0  0  0  0  0  0  0  0  0  0
    7.7670  -18.4226   22.8823 O   0  0  0  0  0  0  0  0  0  0  0  0
    8.1701  -16.1663   22.6899 N   0  0  0  0  0  0  0  0  0  0  0  0
    7.8560  -14.7540   22.6540 C   0  0  0  0  0  0  0  0  0  0  0  0
    8.5478  -14.2118   21.4253 C   0  0  0  0  0  0  0  0  0  0  0  0
    9.4014  -15.3305   20.9314 C   0  0  0  0  0  0  0  0  0  0  0  0
    9.4689  -16.3070   22.0585 C   0  0  1  0  0  0  0  0  0  0  0  0
   10.5962  -16.0963   22.9762 C   0  0  0  0  0  0  0  0  0  0  0  0
   11.7486  -16.0730   22.4714 O   0  0  0  0  0  0  0  0  0  0  0  0
   10.1464  -14.1868   28.4311 C   0  0  0  0  0  0  0  0  0  0  0  0
   10.3478  -15.1978   27.3180 C   0  0  0  0  0  0  0  0  0  0  0  0
   11.3222  -14.6405   26.3057 C   0  0  2  0  0  0  0  0  0  0  0  0
   10.7957  -13.3355   25.8019 C   0  0  0  0  0  0  0  0  0  0  0  0
   11.6418  -15.6107   25.2104 C   0  0  2  0  0  0  0  0  0  0  0  0
   10.5117  -15.9168   24.3750 N   0  0  0  0  0  0  0  0  0  0  0  0
   12.3076  -16.8052   25.7431 C   0  0  0  0  0  0  0  0  0  0  0  0
   13.4222  -16.7473   26.3201 O   0  0  0  0  0  0  0  0  0  0  0  0
   11.7448  -18.0890   25.6436 O   0  0  0  0  0  0  0  0  0  0  0  0
  2  1  1  1
  2 13  1  0
  2  3  1  0
  3  4  1  0
  4  5  2  0
  5  6  1  0
  7  8  2  0
  7  6  1  0
  9  8  1  0
 10  9  2  0
 11 10  1  0
 11 12  2  0
 12  4  1  0
 12  7  1  0
 13 14  2  0
 15 13  1  0
 15 19  1  0
 16 17  1  0
 16 15  1  0
 17 18  1  0
 18 19  1  0
 19 20  1  1
 20 21  2  0
 22 23  1  0
 23 24  1  0
 24 26  1  0
 24 25  1  6
 26 28  1  0
 26 27  1  1
 27 20  1  0
 28 30  1  0
 29 28  2  0
M  END
$$$$
