WPI.pdb
     RDKit          3D

 30 32  0  0  1  0  0  0  0  0999 V2000
    6.0284  -17.9391   25.2284 N   0  0  0  0  0  0  0  0  0  0  0  0
    6.6209  -16.7468   24.6420 C   0  0  1  0  0  0  0  0  0  0  0  0
    7.1000  -15.9176   25.8070 C   0  0  0  0  0  0  0  0  0  0  0  0
    6.2613  -14.7672   26.1569 C   0  0  0  0  0  0  0  0  0  0  0  0
    4.8969  -14.7715   26.4059 C   0  0  0  0  0  0  0  0  0  0  0  0
    4.4730  -13.5220   26.6731 N   0  0  0  0  0  0  0  0  0  0  0  0
    5.5400  -12.6958   26.6037 C   0  0  0  0  0  0  0  0  0  0  0  0
    5.6484  -11.3469   26.7996 C   0  0  0  0  0  0  0  0  0  0  0  0
    6.8944  -10.7218   26.6792 C   0  0  0  0  0  0  0  0  0  0  0  0
    8.0131  -11.4443   26.3664 C   0  0  0  0  0  0  0  0  0  0  0  0
    7.8748  -12.7994   26.1742 C   0  0  0  0  0  0  0  0  0  0  0  0
    6.6560  -13.4573   26.2841 C   0  0  0  0  0  0  0  0  0  0  0  0
    7.5960  -17.0011   23.5928 C   0  0  0  0  0  0  0  0  0  0  0  0
    7.8482  -18.2315   23.3512 O   0  0  0  0  0  0  0  0  0  0  0  0
    8.2914  -16.0389   22.8160 N   0  0  0  0  0  0  0  0  0  0  0  0
    8.0912  -14.6076   22.7395 C   0  0  0  0  0  0  0  0  0  0  0  0
    8.5053  -14.2103   21.3420 C   0  0  0  0  0  0  0  0  0  0  0  0
    9.1221  -15.4342   20.7540 C   0  0  0  0  0  0  0  0  0  0  0  0
    9.3830  -16.3426   21.9096 C   0  0  1  0  0  0  0  0  0  0  0  0
   10.7122  -16.1869   22.5148 C   0  0  0  0  0  0  0  0  0  0  0  0
   11.5576  -15.5109   21.8732 O   0  0  0  0  0  0  0  0  0  0  0  0
    9.7403  -14.1353   27.1101 C   0  0  0  0  0  0  0  0  0  0  0  0
   10.4105  -14.4412   25.7839 C   0  0  0  0  0  0  0  0  0  0  0  0
   11.3138  -15.6425   25.9446 C   0  0  2  0  0  0  0  0  0  0  0  0
   12.2651  -15.3798   27.0672 C   0  0  0  0  0  0  0  0  0  0  0  0
   11.9974  -16.0312   24.6700 C   0  0  2  0  0  0  0  0  0  0  0  0
   11.1347  -16.7243   23.7512 N   0  0  0  0  0  0  0  0  0  0  0  0
   13.2488  -16.7483   24.9414 C   0  0  0  0  0  0  0  0  0  0  0  0
   14.2675  -16.1672   25.3920 O   0  0  0  0  0  0  0  0  0  0  0  0
   13.3905  -18.1282   24.7162 O   0  0  0  0  0  0  0  0  0  0  0  0
  2  1  1  1
  2 13  1  0
  2  3  1  0
  3  4  1  0
  4  5  2  0
  5  6  1  0
  7  8  2  0
  7  6  1  0
  9  8  1  0
 10  9  2  0
 11 10  1  0
 11 12  2  0
 12  4  1  0
 12  7  1  0
 13 14  2  0
 15 13  1  0
 15 19  1  0
 16 17  1  0
 16 15  1  0
 17 18  1  0
 18 19  1  0
 19 20  1  1
 20 21  2  0
 22 23  1  0
 23 24  1  0
 24 26  1  0
 24 25  1  1
 26 28  1  0
 26 27  1  6
 27 20  1  0
 28 30  1  0
 29 28  2  0
M  END
$$$$
