WPI.pdb
     RDKit          3D

 30 32  0  0  1  0  0  0  0  0999 V2000
    5.7362  -18.3256   24.7098 N   0  0  0  0  0  0  0  0  0  0  0  0
    6.3554  -17.0372   24.4390 C   0  0  1  0  0  0  0  0  0  0  0  0
    6.5898  -16.4086   25.7897 C   0  0  0  0  0  0  0  0  0  0  0  0
    5.8692  -15.1573   26.0429 C   0  0  0  0  0  0  0  0  0  0  0  0
    4.4960  -14.9873   26.1389 C   0  0  0  0  0  0  0  0  0  0  0  0
    4.2059  -13.6908   26.3559 N   0  0  0  0  0  0  0  0  0  0  0  0
    5.3695  -13.0055   26.4044 C   0  0  0  0  0  0  0  0  0  0  0  0
    5.6245  -11.6779   26.6096 C   0  0  0  0  0  0  0  0  0  0  0  0
    6.9448  -11.2152   26.6276 C   0  0  0  0  0  0  0  0  0  0  0  0
    7.9913  -12.0765   26.4418 C   0  0  0  0  0  0  0  0  0  0  0  0
    7.7057  -13.4064   26.2370 C   0  0  0  0  0  0  0  0  0  0  0  0
    6.4091  -13.9051   26.2117 C   0  0  0  0  0  0  0  0  0  0  0  0
    7.5036  -17.0858   23.5472 C   0  0  0  0  0  0  0  0  0  0  0  0
    7.8826  -18.2534   23.1880 O   0  0  0  0  0  0  0  0  0  0  0  0
    8.2418  -15.9866   23.0379 N   0  0  0  0  0  0  0  0  0  0  0  0
    7.9353  -14.5733   23.0964 C   0  0  0  0  0  0  0  0  0  0  0  0
    8.5593  -13.9675   21.8611 C   0  0  0  0  0  0  0  0  0  0  0  0
    9.3762  -15.0605   21.2594 C   0  0  0  0  0  0  0  0  0  0  0  0
    9.5016  -16.0970   22.3264 C   0  0  1  0  0  0  0  0  0  0  0  0
   10.6807  -15.9402   23.1880 C   0  0  0  0  0  0  0  0  0  0  0  0
   11.7145  -15.4537   22.6607 O   0  0  0  0  0  0  0  0  0  0  0  0
   10.0018  -13.8259   28.0577 C   0  0  0  0  0  0  0  0  0  0  0  0
   10.5707  -14.1360   26.6859 C   0  0  0  0  0  0  0  0  0  0  0  0
   11.3896  -15.4044   26.7586 C   0  0  2  0  0  0  0  0  0  0  0  0
   12.5117  -15.1956   27.7237 C   0  0  0  0  0  0  0  0  0  0  0  0
   11.8478  -15.8790   25.4140 C   0  0  2  0  0  0  0  0  0  0  0  0
   10.7669  -16.2837   24.5558 N   0  0  0  0  0  0  0  0  0  0  0  0
   12.8954  -16.8985   25.5446 C   0  0  0  0  0  0  0  0  0  0  0  0
   14.0731  -16.6080   25.8717 O   0  0  0  0  0  0  0  0  0  0  0  0
   12.6518  -18.2631   25.3133 O   0  0  0  0  0  0  0  0  0  0  0  0
  2  1  1  1
  2 13  1  0
  2  3  1  0
  3  4  1  0
  4  5  2  0
  5  6  1  0
  7  8  2  0
  7  6  1  0
  9  8  1  0
 10  9  2  0
 11 10  1  0
 11 12  2  0
 12  4  1  0
 12  7  1  0
 13 14  2  0
 15 13  1  0
 15 19  1  0
 16 17  1  0
 16 15  1  0
 17 18  1  0
 18 19  1  0
 19 20  1  1
 20 21  2  0
 22 23  1  0
 23 24  1  0
 24 26  1  0
 24 25  1  1
 26 28  1  0
 26 27  1  1
 27 20  1  0
 28 30  1  0
 29 28  2  0
M  END
$$$$
