WPI.pdb
     RDKit          3D

 30 32  0  0  1  0  0  0  0  0999 V2000
    5.9898  -18.3717   24.8610 N   0  0  0  0  0  0  0  0  0  0  0  0
    6.5637  -17.0727   24.5448 C   0  0  1  0  0  0  0  0  0  0  0  0
    6.8432  -16.4188   25.8748 C   0  0  0  0  0  0  0  0  0  0  0  0
    6.0100  -15.2574   26.2005 C   0  0  0  0  0  0  0  0  0  0  0  0
    4.6409  -15.2456   26.4219 C   0  0  0  0  0  0  0  0  0  0  0  0
    4.2251  -13.9900   26.6727 N   0  0  0  0  0  0  0  0  0  0  0  0
    5.3020  -13.1756   26.6197 C   0  0  0  0  0  0  0  0  0  0  0  0
    5.4209  -11.8267   26.8094 C   0  0  0  0  0  0  0  0  0  0  0  0
    6.6757  -11.2156   26.7104 C   0  0  0  0  0  0  0  0  0  0  0  0
    7.7927  -11.9520   26.4247 C   0  0  0  0  0  0  0  0  0  0  0  0
    7.6438  -13.3067   26.2381 C   0  0  0  0  0  0  0  0  0  0  0  0
    6.4160  -13.9509   26.3275 C   0  0  0  0  0  0  0  0  0  0  0  0
    7.6712  -17.1064   23.6023 C   0  0  0  0  0  0  0  0  0  0  0  0
    8.1077  -18.2687   23.2949 O   0  0  0  0  0  0  0  0  0  0  0  0
    8.3137  -15.9979   22.9931 N   0  0  0  0  0  0  0  0  0  0  0  0
    8.0069  -14.5879   23.1054 C   0  0  0  0  0  0  0  0  0  0  0  0
    8.4309  -13.9708   21.7933 C   0  0  0  0  0  0  0  0  0  0  0  0
    9.1568  -15.0533   21.0684 C   0  0  0  0  0  0  0  0  0  0  0  0
    9.4519  -16.0930   22.0982 C   0  0  1  0  0  0  0  0  0  0  0  0
   10.7466  -15.9284   22.7719 C   0  0  0  0  0  0  0  0  0  0  0  0
   11.4733  -14.9747   22.3902 O   0  0  0  0  0  0  0  0  0  0  0  0
   10.2130  -13.8484   27.0089 C   0  0  0  0  0  0  0  0  0  0  0  0
   10.6904  -14.4714   25.7106 C   0  0  0  0  0  0  0  0  0  0  0  0
   11.5100  -15.7036   26.0182 C   0  0  2  0  0  0  0  0  0  0  0  0
   12.4624  -15.3818   27.1243 C   0  0  0  0  0  0  0  0  0  0  0  0
   12.1824  -16.2725   24.8068 C   0  0  2  0  0  0  0  0  0  0  0  0
   11.2567  -16.7397   23.8100 N   0  0  0  0  0  0  0  0  0  0  0  0
   13.1827  -17.2781   25.1836 C   0  0  0  0  0  0  0  0  0  0  0  0
   12.9299  -18.5087   25.1725 O   0  0  0  0  0  0  0  0  0  0  0  0
   14.4858  -16.9327   25.5807 O   0  0  0  0  0  0  0  0  0  0  0  0
  2  1  1  1
  2 13  1  0
  2  3  1  0
  3  4  1  0
  4  5  2  0
  5  6  1  0
  7  8  2  0
  7  6  1  0
  9  8  1  0
 10  9  2  0
 11 10  1  0
 11 12  2  0
 12  4  1  0
 12  7  1  0
 13 14  2  0
 15 13  1  0
 15 19  1  0
 16 17  1  0
 16 15  1  0
 17 18  1  0
 18 19  1  0
 19 20  1  1
 20 21  2  0
 22 23  1  0
 23 24  1  0
 24 26  1  0
 24 25  1  1
 26 28  1  0
 26 27  1  6
 27 20  1  0
 28 30  1  0
 29 28  2  0
M  END
$$$$
