FDV.pdb
     RDKit          3D

 27 27  0  0  1  0  0  0  0  0999 V2000
   28.7570  -20.7920   -9.2501 N   0  0  0  0  0  0  0  0  0  0  0  0
   27.3133  -20.7025   -9.0487 C   0  0  1  0  0  0  0  0  0  0  0  0
   27.0056  -19.5943   -8.1031 C   0  0  0  0  0  0  0  0  0  0  0  0
   27.6094  -19.8062   -6.7862 C   0  0  0  0  0  0  0  0  0  0  0  0
   28.7807  -19.1554   -6.3865 C   0  0  0  0  0  0  0  0  0  0  0  0
   29.3450  -19.3491   -5.1482 C   0  0  0  0  0  0  0  0  0  0  0  0
   28.7636  -20.2089   -4.2401 C   0  0  0  0  0  0  0  0  0  0  0  0
   27.6082  -20.8635   -4.6082 C   0  0  0  0  0  0  0  0  0  0  0  0
   27.0419  -20.6597   -5.8702 C   0  0  0  0  0  0  0  0  0  0  0  0
   26.6522  -20.5995  -10.3690 C   0  0  0  0  0  0  0  0  0  0  0  0
   27.0068  -19.7595  -11.2359 O   0  0  0  0  0  0  0  0  0  0  0  0
   25.5666  -21.4477  -10.7479 N   0  0  0  0  0  0  0  0  0  0  0  0
   24.8766  -21.3130  -12.0072 C   0  0  1  0  0  0  0  0  0  0  0  0
   25.0417  -22.5302  -12.8733 C   0  0  0  0  0  0  0  0  0  0  0  0
   24.5205  -22.3464  -14.2360 C   0  0  0  0  0  0  0  0  0  0  0  0
   24.0074  -21.2881  -14.6799 O   0  0  0  0  0  0  0  0  0  0  0  0
   23.4537  -20.9453  -11.8059 C   0  0  0  0  0  0  0  0  0  0  0  0
   22.8699  -21.3908  -10.7872 O   0  0  0  0  0  0  0  0  0  0  0  0
   24.5964  -23.4215  -15.1106 O   0  0  0  0  0  0  0  0  0  0  0  0
   19.7568  -17.9850  -13.0391 C   0  0  0  0  0  0  0  0  0  0  0  0
   21.1996  -18.4000  -13.2648 C   0  0  2  0  0  0  0  0  0  0  0  0
   21.4636  -18.4959  -14.7402 C   0  0  0  0  0  0  0  0  0  0  0  0
   21.3813  -19.7266  -12.5552 C   0  0  2  0  0  0  0  0  0  0  0  0
   22.7685  -20.1158  -12.7330 N   0  0  0  0  0  0  0  0  0  0  0  0
   20.4660  -20.7720  -13.1256 C   0  0  0  0  0  0  0  0  0  0  0  0
   20.7913  -21.4769  -14.1136 O   0  0  0  0  0  0  0  0  0  0  0  0
   19.2125  -21.0034  -12.5792 O   0  0  0  0  0  0  0  0  0  0  0  0
  2  1  1  6
  2 10  1  0
  3  4  1  0
  3  2  1  0
  4  9  2  0
  5  4  1  0
  5  6  2  0
  6  7  1  0
  7  8  2  0
  9  8  1  0
 10 11  2  0
 12 10  1  0
 12 13  1  0
 13 17  1  0
 13 14  1  1
 15 14  1  0
 15 19  1  0
 16 15  2  0
 17 24  1  0
 18 17  2  0
 21 20  1  6
 21 22  1  0
 23 21  1  0
 23 24  1  6
 25 23  1  0
 25 27  1  0
 26 25  2  0
M  END
$$$$
