FDV.pdb
     RDKit          3D

 27 27  0  0  1  0  0  0  0  0999 V2000
   27.5156  -22.4234   -9.9776 N   0  0  0  0  0  0  0  0  0  0  0  0
   26.7708  -21.1844  -10.1845 C   0  0  1  0  0  0  0  0  0  0  0  0
   27.6246  -20.0188   -9.8250 C   0  0  0  0  0  0  0  0  0  0  0  0
   27.8483  -19.9205   -8.3814 C   0  0  0  0  0  0  0  0  0  0  0  0
   26.8912  -19.3916   -7.5100 C   0  0  0  0  0  0  0  0  0  0  0  0
   27.0980  -19.3044   -6.1539 C   0  0  0  0  0  0  0  0  0  0  0  0
   28.2800  -19.7443   -5.5958 C   0  0  0  0  0  0  0  0  0  0  0  0
   29.2409  -20.2702   -6.4319 C   0  0  0  0  0  0  0  0  0  0  0  0
   29.0209  -20.3547   -7.8101 C   0  0  0  0  0  0  0  0  0  0  0  0
   26.2426  -21.1697  -11.5671 C   0  0  0  0  0  0  0  0  0  0  0  0
   26.9615  -21.4330  -12.5654 O   0  0  0  0  0  0  0  0  0  0  0  0
   24.8800  -20.8555  -11.8609 N   0  0  0  0  0  0  0  0  0  0  0  0
   24.3516  -20.8628  -13.2028 C   0  0  1  0  0  0  0  0  0  0  0  0
   22.9512  -21.4060  -13.2543 C   0  0  0  0  0  0  0  0  0  0  0  0
   22.0883  -20.8854  -12.1836 C   0  0  0  0  0  0  0  0  0  0  0  0
   22.4526  -20.0912  -11.2799 O   0  0  0  0  0  0  0  0  0  0  0  0
   24.4682  -19.5262  -13.8356 C   0  0  0  0  0  0  0  0  0  0  0  0
   23.9771  -18.5432  -13.2275 O   0  0  0  0  0  0  0  0  0  0  0  0
   20.7631  -21.2976  -12.1596 O   0  0  0  0  0  0  0  0  0  0  0  0
   27.3665  -18.8314  -16.5942 C   0  0  0  0  0  0  0  0  0  0  0  0
   26.6961  -17.7224  -15.8032 C   0  0  2  0  0  0  0  0  0  0  0  0
   27.3214  -17.6371  -14.4403 C   0  0  0  0  0  0  0  0  0  0  0  0
   25.2216  -18.0671  -15.7447 C   0  0  2  0  0  0  0  0  0  0  0  0
   25.1138  -19.3580  -15.0893 N   0  0  0  0  0  0  0  0  0  0  0  0
   24.6278  -18.1275  -17.1231 C   0  0  0  0  0  0  0  0  0  0  0  0
   24.4600  -17.0977  -17.8234 O   0  0  0  0  0  0  0  0  0  0  0  0
   24.2370  -19.3343  -17.6837 O   0  0  0  0  0  0  0  0  0  0  0  0
  2  1  1  6
  2 10  1  0
  3  4  1  0
  3  2  1  0
  4  9  2  0
  5  4  1  0
  5  6  2  0
  6  7  1  0
  7  8  2  0
  9  8  1  0
 10 11  2  0
 12 10  1  0
 12 13  1  0
 13 17  1  0
 13 14  1  1
 15 14  1  0
 15 19  1  0
 16 15  2  0
 17 24  1  0
 18 17  2  0
 21 20  1  6
 21 22  1  0
 23 21  1  0
 23 24  1  6
 25 23  1  0
 25 27  1  0
 26 25  2  0
M  END
$$$$
