FDV.pdb
     RDKit          3D

 27 27  0  0  1  0  0  0  0  0999 V2000
   26.9374  -18.1340   -7.8063 N   0  0  0  0  0  0  0  0  0  0  0  0
   27.1925  -19.4994   -8.2572 C   0  0  1  0  0  0  0  0  0  0  0  0
   26.7342  -20.4648   -7.2205 C   0  0  0  0  0  0  0  0  0  0  0  0
   27.5109  -20.3598   -5.9839 C   0  0  0  0  0  0  0  0  0  0  0  0
   28.8836  -20.6217   -5.9378 C   0  0  0  0  0  0  0  0  0  0  0  0
   29.6148  -20.5176   -4.7785 C   0  0  0  0  0  0  0  0  0  0  0  0
   29.0072  -20.1439   -3.5982 C   0  0  0  0  0  0  0  0  0  0  0  0
   27.6548  -19.8798   -3.6152 C   0  0  0  0  0  0  0  0  0  0  0  0
   26.9198  -19.9885   -4.7997 C   0  0  0  0  0  0  0  0  0  0  0  0
   26.5846  -19.6823   -9.5944 C   0  0  0  0  0  0  0  0  0  0  0  0
   25.4596  -19.2053   -9.8936 O   0  0  0  0  0  0  0  0  0  0  0  0
   27.2350  -20.4133  -10.6356 N   0  0  0  0  0  0  0  0  0  0  0  0
   26.6688  -20.5607  -11.9538 C   0  0  1  0  0  0  0  0  0  0  0  0
   27.6632  -21.1132  -12.9360 C   0  0  0  0  0  0  0  0  0  0  0  0
   27.1417  -21.1869  -14.3088 C   0  0  0  0  0  0  0  0  0  0  0  0
   27.6759  -21.8192  -15.2549 O   0  0  0  0  0  0  0  0  0  0  0  0
   25.4099  -21.3444  -11.9153 C   0  0  0  0  0  0  0  0  0  0  0  0
   25.4679  -22.5302  -11.5059 O   0  0  0  0  0  0  0  0  0  0  0  0
   25.9656  -20.5071  -14.5939 O   0  0  0  0  0  0  0  0  0  0  0  0
   21.8076  -19.3980  -12.3331 C   0  0  0  0  0  0  0  0  0  0  0  0
   21.8885  -20.7514  -11.6498 C   0  0  2  0  0  0  0  0  0  0  0  0
   22.2281  -20.5559  -10.1999 C   0  0  0  0  0  0  0  0  0  0  0  0
   22.9452  -21.5448  -12.3916 C   0  0  2  0  0  0  0  0  0  0  0  0
   24.1752  -20.7763  -12.3273 N   0  0  0  0  0  0  0  0  0  0  0  0
   22.5430  -21.7725  -13.8208 C   0  0  0  0  0  0  0  0  0  0  0  0
   21.6125  -22.5561  -14.1357 O   0  0  0  0  0  0  0  0  0  0  0  0
   23.1890  -21.1205  -14.8604 O   0  0  0  0  0  0  0  0  0  0  0  0
  2  1  1  1
  2 10  1  0
  3  4  1  0
  3  2  1  0
  4  9  2  0
  5  4  1  0
  5  6  2  0
  6  7  1  0
  7  8  2  0
  9  8  1  0
 10 11  2  0
 12 10  1  0
 12 13  1  0
 13 17  1  0
 13 14  1  6
 15 14  1  0
 15 19  1  0
 16 15  2  0
 17 24  1  0
 18 17  2  0
 21 20  1  6
 21 22  1  0
 23 21  1  0
 23 24  1  6
 25 23  1  0
 25 27  1  0
 26 25  2  0
M  END
$$$$
