FDV.pdb
     RDKit          3D

 27 27  0  0  1  0  0  0  0  0999 V2000
   20.8742  -20.4588  -22.1276 N   0  0  0  0  0  0  0  0  0  0  0  0
   20.3006  -19.6334  -21.0681 C   0  0  1  0  0  0  0  0  0  0  0  0
   18.8348  -19.4863  -21.2835 C   0  0  0  0  0  0  0  0  0  0  0  0
   18.5268  -18.7125  -22.4876 C   0  0  0  0  0  0  0  0  0  0  0  0
   18.1605  -19.3184  -23.6934 C   0  0  0  0  0  0  0  0  0  0  0  0
   17.8654  -18.5925  -24.8227 C   0  0  0  0  0  0  0  0  0  0  0  0
   17.9217  -17.2146  -24.8044 C   0  0  0  0  0  0  0  0  0  0  0  0
   18.2800  -16.5914  -23.6287 C   0  0  0  0  0  0  0  0  0  0  0  0
   18.5782  -17.3388  -22.4853 C   0  0  0  0  0  0  0  0  0  0  0  0
   20.6860  -20.2029  -19.7573 C   0  0  0  0  0  0  0  0  0  0  0  0
   20.8661  -21.4361  -19.5857 O   0  0  0  0  0  0  0  0  0  0  0  0
   20.8794  -19.3898  -18.5984 N   0  0  0  0  0  0  0  0  0  0  0  0
   21.2909  -19.9322  -17.3271 C   0  0  1  0  0  0  0  0  0  0  0  0
   22.2341  -19.0144  -16.6012 C   0  0  0  0  0  0  0  0  0  0  0  0
   23.6009  -19.0423  -17.1428 C   0  0  0  0  0  0  0  0  0  0  0  0
   24.0006  -19.7973  -18.0649 O   0  0  0  0  0  0  0  0  0  0  0  0
   20.1206  -20.3166  -16.5006 C   0  0  0  0  0  0  0  0  0  0  0  0
   19.2438  -19.4445  -16.2816 O   0  0  0  0  0  0  0  0  0  0  0  0
   24.5325  -18.1686  -16.5993 O   0  0  0  0  0  0  0  0  0  0  0  0
   17.5321  -24.0199  -14.5800 C   0  0  0  0  0  0  0  0  0  0  0  0
   18.8026  -23.5786  -15.2842 C   0  0  2  0  0  0  0  0  0  0  0  0
   19.9903  -24.1786  -14.5877 C   0  0  0  0  0  0  0  0  0  0  0  0
   18.8114  -22.0637  -15.2455 C   0  0  2  0  0  0  0  0  0  0  0  0
   19.9908  -21.6280  -15.9712 N   0  0  0  0  0  0  0  0  0  0  0  0
   18.8509  -21.5615  -13.8305 C   0  0  0  0  0  0  0  0  0  0  0  0
   19.9322  -21.3805  -13.2164 O   0  0  0  0  0  0  0  0  0  0  0  0
   17.6841  -21.2747  -13.1381 O   0  0  0  0  0  0  0  0  0  0  0  0
  2  1  1  6
  2 10  1  0
  3  4  1  0
  3  2  1  0
  4  9  2  0
  5  4  1  0
  5  6  2  0
  6  7  1  0
  7  8  2  0
  9  8  1  0
 10 11  2  0
 12 10  1  0
 12 13  1  0
 13 17  1  0
 13 14  1  1
 15 14  1  0
 15 19  1  0
 16 15  2  0
 17 24  1  0
 18 17  2  0
 21 20  1  1
 21 22  1  0
 23 21  1  0
 23 24  1  6
 25 23  1  0
 25 27  1  0
 26 25  2  0
M  END
$$$$
