FDV.pdb
     RDKit          3D

 27 27  0  0  1  0  0  0  0  0999 V2000
   23.7396  -30.2948  -17.0942 N   0  0  0  0  0  0  0  0  0  0  0  0
   24.0287  -31.5742  -16.4522 C   0  0  1  0  0  0  0  0  0  0  0  0
   25.4760  -31.8928  -16.5958 C   0  0  0  0  0  0  0  0  0  0  0  0
   25.8507  -32.1515  -17.9873 C   0  0  0  0  0  0  0  0  0  0  0  0
   26.6081  -31.2478  -18.7388 C   0  0  0  0  0  0  0  0  0  0  0  0
   26.9655  -31.4925  -20.0433 C   0  0  0  0  0  0  0  0  0  0  0  0
   26.5815  -32.6608  -20.6675 C   0  0  0  0  0  0  0  0  0  0  0  0
   25.8343  -33.5693  -19.9498 C   0  0  0  0  0  0  0  0  0  0  0  0
   25.4759  -33.3112  -18.6232 C   0  0  0  0  0  0  0  0  0  0  0  0
   23.5330  -31.5319  -15.0581 C   0  0  0  0  0  0  0  0  0  0  0  0
   23.3319  -30.4505  -14.4475 O   0  0  0  0  0  0  0  0  0  0  0  0
   23.2496  -32.7170  -14.3119 N   0  0  0  0  0  0  0  0  0  0  0  0
   22.7568  -32.6841  -12.9569 C   0  0  1  0  0  0  0  0  0  0  0  0
   21.3046  -33.0632  -12.8759 C   0  0  0  0  0  0  0  0  0  0  0  0
   20.7685  -33.0135  -11.5076 C   0  0  0  0  0  0  0  0  0  0  0  0
   21.0476  -32.1374  -10.6504 O   0  0  0  0  0  0  0  0  0  0  0  0
   23.6089  -33.4952  -12.0534 C   0  0  0  0  0  0  0  0  0  0  0  0
   23.9891  -34.6217  -12.4581 O   0  0  0  0  0  0  0  0  0  0  0  0
   19.8821  -34.0093  -11.1210 O   0  0  0  0  0  0  0  0  0  0  0  0
   24.3981  -32.0447   -8.2179 C   0  0  0  0  0  0  0  0  0  0  0  0
   25.4894  -32.8250   -8.9287 C   0  0  2  0  0  0  0  0  0  0  0  0
   26.3780  -31.8700   -9.6731 C   0  0  0  0  0  0  0  0  0  0  0  0
   24.7881  -33.8030   -9.8497 C   0  0  2  0  0  0  0  0  0  0  0  0
   23.9857  -33.0178  -10.7701 N   0  0  0  0  0  0  0  0  0  0  0  0
   23.9184  -34.7476   -9.0701 C   0  0  0  0  0  0  0  0  0  0  0  0
   22.6645  -34.6664   -9.0844 O   0  0  0  0  0  0  0  0  0  0  0  0
   24.4700  -35.7572   -8.2957 O   0  0  0  0  0  0  0  0  0  0  0  0
  2  1  1  1
  2 10  1  0
  3  4  1  0
  3  2  1  0
  4  9  2  0
  5  4  1  0
  5  6  2  0
  6  7  1  0
  7  8  2  0
  9  8  1  0
 10 11  2  0
 12 10  1  0
 12 13  1  0
 13 17  1  0
 13 14  1  6
 15 14  1  0
 15 19  1  0
 16 15  2  0
 17 24  1  0
 18 17  2  0
 21 20  1  6
 21 22  1  0
 23 21  1  0
 23 24  1  6
 25 23  1  0
 25 27  1  0
 26 25  2  0
M  END
$$$$
