FDV.pdb
     RDKit          3D

 27 27  0  0  1  0  0  0  0  0999 V2000
   23.1152  -13.4950  -17.8348 N   0  0  0  0  0  0  0  0  0  0  0  0
   23.3282  -12.7131  -16.6199 C   0  0  1  0  0  0  0  0  0  0  0  0
   24.7825  -12.4493  -16.4405 C   0  0  0  0  0  0  0  0  0  0  0  0
   25.5362  -13.6718  -16.1561 C   0  0  0  0  0  0  0  0  0  0  0  0
   25.5443  -14.2691  -14.8918 C   0  0  0  0  0  0  0  0  0  0  0  0
   26.2468  -15.4201  -14.6254 C   0  0  0  0  0  0  0  0  0  0  0  0
   26.9821  -16.0371  -15.6156 C   0  0  0  0  0  0  0  0  0  0  0  0
   26.9916  -15.4697  -16.8714 C   0  0  0  0  0  0  0  0  0  0  0  0
   26.2736  -14.2986  -17.1324 C   0  0  0  0  0  0  0  0  0  0  0  0
   22.4754  -11.5045  -16.6739 C   0  0  0  0  0  0  0  0  0  0  0  0
   22.2244  -10.9052  -17.7512 O   0  0  0  0  0  0  0  0  0  0  0  0
   21.8798  -10.9371  -15.5057 N   0  0  0  0  0  0  0  0  0  0  0  0
   21.0506   -9.7579  -15.5495 C   0  0  1  0  0  0  0  0  0  0  0  0
   19.6819  -10.0098  -14.9818 C   0  0  0  0  0  0  0  0  0  0  0  0
   18.8309   -8.8108  -14.9681 C   0  0  0  0  0  0  0  0  0  0  0  0
   18.8081   -7.9476  -14.0546 O   0  0  0  0  0  0  0  0  0  0  0  0
   21.7264   -8.5996  -14.9155 C   0  0  0  0  0  0  0  0  0  0  0  0
   22.3836   -8.8052  -13.8652 O   0  0  0  0  0  0  0  0  0  0  0  0
   17.9805   -8.6059  -16.0459 O   0  0  0  0  0  0  0  0  0  0  0  0
   22.1425   -5.1769  -17.1368 C   0  0  0  0  0  0  0  0  0  0  0  0
   23.1465   -5.5464  -16.0596 C   0  0  2  0  0  0  0  0  0  0  0  0
   24.1609   -6.4952  -16.6311 C   0  0  0  0  0  0  0  0  0  0  0  0
   22.3524   -6.1604  -14.9244 C   0  0  2  0  0  0  0  0  0  0  0  0
   21.6362   -7.2971  -15.4743 N   0  0  0  0  0  0  0  0  0  0  0  0
   21.3895   -5.1658  -14.3414 C   0  0  0  0  0  0  0  0  0  0  0  0
   21.7746   -4.1919  -13.6470 O   0  0  0  0  0  0  0  0  0  0  0  0
   20.0233   -5.2838  -14.5483 O   0  0  0  0  0  0  0  0  0  0  0  0
  2  1  1  6
  2 10  1  0
  3  4  1  0
  3  2  1  0
  4  9  2  0
  5  4  1  0
  5  6  2  0
  6  7  1  0
  7  8  2  0
  9  8  1  0
 10 11  2  0
 12 10  1  0
 12 13  1  0
 13 17  1  0
 13 14  1  1
 15 14  1  0
 15 19  1  0
 16 15  2  0
 17 24  1  0
 18 17  2  0
 21 20  1  6
 21 22  1  0
 23 21  1  0
 23 24  1  6
 25 23  1  0
 25 27  1  0
 26 25  2  0
M  END
$$$$
