FDV.pdb
     RDKit          3D

 27 27  0  0  1  0  0  0  0  0999 V2000
   23.8020  -12.2446  -17.2086 N   0  0  0  0  0  0  0  0  0  0  0  0
   24.0459  -11.1327  -16.2938 C   0  0  1  0  0  0  0  0  0  0  0  0
   25.3441  -10.4839  -16.6264 C   0  0  0  0  0  0  0  0  0  0  0  0
   26.4783  -11.3930  -16.4521 C   0  0  0  0  0  0  0  0  0  0  0  0
   26.9836  -11.7262  -15.1916 C   0  0  0  0  0  0  0  0  0  0  0  0
   28.0447  -12.5843  -15.0267 C   0  0  0  0  0  0  0  0  0  0  0  0
   28.6590  -13.1571  -16.1205 C   0  0  0  0  0  0  0  0  0  0  0  0
   28.1810  -12.8460  -17.3750 C   0  0  0  0  0  0  0  0  0  0  0  0
   27.1010  -11.9720  -17.5323 C   0  0  0  0  0  0  0  0  0  0  0  0
   22.8725  -10.2306  -16.3149 C   0  0  0  0  0  0  0  0  0  0  0  0
   21.8434  -10.4803  -16.9940 O   0  0  0  0  0  0  0  0  0  0  0  0
   22.8299   -9.0152  -15.5648 N   0  0  0  0  0  0  0  0  0  0  0  0
   21.6777   -8.1478  -15.5534 C   0  0  1  0  0  0  0  0  0  0  0  0
   20.4561   -8.8404  -15.0178 C   0  0  0  0  0  0  0  0  0  0  0  0
   19.7627   -9.6548  -16.0269 C   0  0  0  0  0  0  0  0  0  0  0  0
   19.5330  -10.8870  -15.9319 O   0  0  0  0  0  0  0  0  0  0  0  0
   21.9673   -6.8758  -14.8475 C   0  0  0  0  0  0  0  0  0  0  0  0
   22.3108   -6.9380  -13.6411 O   0  0  0  0  0  0  0  0  0  0  0  0
   19.3222   -9.0218  -17.1810 O   0  0  0  0  0  0  0  0  0  0  0  0
   22.3841   -3.3944  -17.1046 C   0  0  0  0  0  0  0  0  0  0  0  0
   23.1876   -3.6709  -15.8464 C   0  0  2  0  0  0  0  0  0  0  0  0
   24.3860   -4.5058  -16.1962 C   0  0  0  0  0  0  0  0  0  0  0  0
   22.2513   -4.3739  -14.8843 C   0  0  2  0  0  0  0  0  0  0  0  0
   21.8610   -5.6243  -15.5102 N   0  0  0  0  0  0  0  0  0  0  0  0
   21.0416   -3.5308  -14.5977 C   0  0  0  0  0  0  0  0  0  0  0  0
   19.9494   -3.7059  -15.1939 O   0  0  0  0  0  0  0  0  0  0  0  0
   21.0821   -2.5154  -13.6540 O   0  0  0  0  0  0  0  0  0  0  0  0
  2  1  1  6
  2 10  1  0
  3  4  1  0
  3  2  1  0
  4  9  2  0
  5  4  1  0
  5  6  2  0
  6  7  1  0
  7  8  2  0
  9  8  1  0
 10 11  2  0
 12 10  1  0
 12 13  1  0
 13 17  1  0
 13 14  1  1
 15 14  1  0
 15 19  1  0
 16 15  2  0
 17 24  1  0
 18 17  2  0
 21 20  1  6
 21 22  1  0
 23 21  1  0
 23 24  1  6
 25 23  1  0
 25 27  1  0
 26 25  2  0
M  END
$$$$
