KSI.pdb
     RDKit          3D

 24 23  0  0  1  0  0  0  0  0999 V2000
    6.7561  -16.5746   18.9414 N   0  0  0  0  0  0  0  0  0  0  0  0
    7.5576  -15.6664   19.7297 C   0  0  1  0  0  0  0  0  0  0  0  0
    7.1430  -14.2514   19.4997 C   0  0  0  0  0  0  0  0  0  0  0  0
    7.8728  -13.5227   18.4336 C   0  0  0  0  0  0  0  0  0  0  0  0
    7.8237  -14.1187   17.0700 C   0  0  0  0  0  0  0  0  0  0  0  0
    8.6223  -13.3412   16.0522 C   0  0  0  0  0  0  0  0  0  0  0  0
    8.4547  -13.8996   14.7254 N   0  0  0  0  0  0  0  0  0  0  0  0
    7.4218  -16.0684   21.1599 C   0  0  0  0  0  0  0  0  0  0  0  0
    6.2984  -16.2192   21.7029 O   0  0  0  0  0  0  0  0  0  0  0  0
   10.6700  -17.6729   23.1113 O   0  0  0  0  0  0  0  0  0  0  0  0
    9.3630  -17.9257   23.5425 C   0  0  0  0  0  0  0  0  0  0  0  0
    8.5056  -16.6645   23.3700 C   0  0  2  0  0  0  0  0  0  0  0  0
    8.5606  -16.3031   21.9878 N   0  0  0  0  0  0  0  0  0  0  0  0
    9.0706  -15.5642   24.2415 C   0  0  0  0  0  0  0  0  0  0  0  0
   10.0475  -14.8875   23.8412 O   0  0  0  0  0  0  0  0  0  0  0  0
    6.0492  -11.9169   26.1003 C   0  0  0  0  0  0  0  0  0  0  0  0
    7.3077  -12.6860   25.6796 C   0  0  0  0  0  0  0  0  0  0  0  0
    7.9021  -13.3961   26.8640 C   0  0  2  0  0  0  0  0  0  0  0  0
    8.3419  -12.3301   27.8629 C   0  0  0  0  0  0  0  0  0  0  0  0
    8.9462  -14.3677   26.4954 C   0  0  2  0  0  0  0  0  0  0  0  0
    8.4974  -15.3150   25.4821 N   0  0  0  0  0  0  0  0  0  0  0  0
    9.5779  -14.9933   27.6657 C   0  0  0  0  0  0  0  0  0  0  0  0
    9.4746  -16.3551   27.8757 O   0  0  0  0  0  0  0  0  0  0  0  0
   10.2225  -14.3408   28.4988 O   0  0  0  0  0  0  0  0  0  0  0  0
  2  1  1  6
  3  2  1  0
  4  3  1  0
  5  6  1  0
  5  4  1  0
  6  7  1  0
  8  2  1  0
  8  9  2  0
 10 11  1  0
 12 11  1  6
 12 13  1  0
 13  8  1  0
 14 12  1  0
 15 14  2  0
 17 16  1  0
 18 17  1  0
 18 19  1  1
 20 18  1  0
 20 21  1  6
 21 14  1  0
 22 20  1  0
 23 22  1  0
 24 22  2  0
M  END
$$$$
