KSI.pdb
     RDKit          3D

 24 23  0  0  1  0  0  0  0  0999 V2000
    9.1463  -15.7452   18.6394 N   0  0  0  0  0  0  0  0  0  0  0  0
    8.5915  -14.5102   19.1449 C   0  0  1  0  0  0  0  0  0  0  0  0
    7.5639  -13.9646   18.2104 C   0  0  0  0  0  0  0  0  0  0  0  0
    7.7148  -14.3400   16.7834 C   0  0  0  0  0  0  0  0  0  0  0  0
    8.6435  -13.5050   15.9726 C   0  0  0  0  0  0  0  0  0  0  0  0
    8.6250  -13.8506   14.5035 C   0  0  0  0  0  0  0  0  0  0  0  0
    9.5144  -12.9843   13.7559 N   0  0  0  0  0  0  0  0  0  0  0  0
    8.0313  -14.7873   20.4995 C   0  0  0  0  0  0  0  0  0  0  0  0
    7.3289  -13.9442   21.1122 O   0  0  0  0  0  0  0  0  0  0  0  0
    9.5443  -18.0127   22.7009 O   0  0  0  0  0  0  0  0  0  0  0  0
    8.1630  -17.7988   22.7647 C   0  0  0  0  0  0  0  0  0  0  0  0
    7.8541  -16.3170   22.5103 C   0  0  2  0  0  0  0  0  0  0  0  0
    8.2631  -16.0249   21.1718 N   0  0  0  0  0  0  0  0  0  0  0  0
    8.6221  -15.4776   23.5077 C   0  0  0  0  0  0  0  0  0  0  0  0
    9.8039  -15.1378   23.2621 O   0  0  0  0  0  0  0  0  0  0  0  0
    5.7959  -12.1846   27.3386 C   0  0  0  0  0  0  0  0  0  0  0  0
    6.4271  -13.4382   26.7201 C   0  0  0  0  0  0  0  0  0  0  0  0
    7.7306  -13.0896   26.0569 C   0  0  2  0  0  0  0  0  0  0  0  0
    7.4103  -12.2074   24.8542 C   0  0  0  0  0  0  0  0  0  0  0  0
    8.5633  -14.2671   25.7569 C   0  0  2  0  0  0  0  0  0  0  0  0
    8.0055  -15.0909   24.6910 N   0  0  0  0  0  0  0  0  0  0  0  0
    8.9398  -15.0181   26.9629 C   0  0  0  0  0  0  0  0  0  0  0  0
    9.7129  -14.4286   27.9447 O   0  0  0  0  0  0  0  0  0  0  0  0
    8.5845  -16.1900   27.1516 O   0  0  0  0  0  0  0  0  0  0  0  0
  2  1  1  6
  3  2  1  0
  4  3  1  0
  5  6  1  0
  5  4  1  0
  6  7  1  0
  8  2  1  0
  8  9  2  0
 10 11  1  0
 12 11  1  1
 12 13  1  0
 13  8  1  0
 14 12  1  0
 15 14  2  0
 17 16  1  0
 18 17  1  0
 18 19  1  6
 20 18  1  0
 20 21  1  6
 21 14  1  0
 22 20  1  0
 23 22  1  0
 24 22  2  0
M  END
$$$$
