KSI.pdb
     RDKit          3D

 24 23  0  0  1  0  0  0  0  0999 V2000
    9.0412  -16.3759   19.1051 N   0  0  0  0  0  0  0  0  0  0  0  0
    8.6385  -15.0804   19.6031 C   0  0  1  0  0  0  0  0  0  0  0  0
    7.6196  -14.4577   18.7082 C   0  0  0  0  0  0  0  0  0  0  0  0
    7.7831  -14.7129   17.2562 C   0  0  0  0  0  0  0  0  0  0  0  0
    7.9050  -13.5139   16.3817 C   0  0  0  0  0  0  0  0  0  0  0  0
    7.8454  -13.8430   14.9099 C   0  0  0  0  0  0  0  0  0  0  0  0
    7.9582  -12.6428   14.1054 N   0  0  0  0  0  0  0  0  0  0  0  0
    8.1290  -15.2685   20.9925 C   0  0  0  0  0  0  0  0  0  0  0  0
    7.4709  -14.3762   21.5844 O   0  0  0  0  0  0  0  0  0  0  0  0
    9.5985  -18.3931   23.4377 O   0  0  0  0  0  0  0  0  0  0  0  0
    8.2160  -18.1857   23.3779 C   0  0  0  0  0  0  0  0  0  0  0  0
    7.9246  -16.7119   23.0636 C   0  0  2  0  0  0  0  0  0  0  0  0
    8.3618  -16.4721   21.7237 N   0  0  0  0  0  0  0  0  0  0  0  0
    8.6800  -15.8425   24.0447 C   0  0  0  0  0  0  0  0  0  0  0  0
    9.8732  -15.5316   23.8164 O   0  0  0  0  0  0  0  0  0  0  0  0
    6.1061  -11.7042   26.1011 C   0  0  0  0  0  0  0  0  0  0  0  0
    7.2052  -12.6482   25.5979 C   0  0  0  0  0  0  0  0  0  0  0  0
    7.6888  -13.5259   26.7187 C   0  0  2  0  0  0  0  0  0  0  0  0
    8.2507  -12.6132   27.8044 C   0  0  0  0  0  0  0  0  0  0  0  0
    8.6028  -14.5905   26.2705 C   0  0  2  0  0  0  0  0  0  0  0  0
    8.0394  -15.3961   25.1937 N   0  0  0  0  0  0  0  0  0  0  0  0
    9.1499  -15.3757   27.3860 C   0  0  0  0  0  0  0  0  0  0  0  0
   10.1305  -14.8465   28.2031 O   0  0  0  0  0  0  0  0  0  0  0  0
    8.7611  -16.5241   27.6414 O   0  0  0  0  0  0  0  0  0  0  0  0
  2  1  1  6
  3  2  1  0
  4  3  1  0
  5  6  1  0
  5  4  1  0
  6  7  1  0
  8  2  1  0
  8  9  2  0
 10 11  1  0
 12 11  1  1
 12 13  1  0
 13  8  1  0
 14 12  1  0
 15 14  2  0
 17 16  1  0
 18 17  1  0
 18 19  1  1
 20 18  1  0
 20 21  1  6
 21 14  1  0
 22 20  1  0
 23 22  1  0
 24 22  2  0
M  END
$$$$
