KSI.pdb
     RDKit          3D

 24 23  0  0  1  0  0  0  0  0999 V2000
    8.0977  -18.6067   19.1620 N   0  0  0  0  0  0  0  0  0  0  0  0
    8.2776  -17.2012   19.4465 C   0  0  1  0  0  0  0  0  0  0  0  0
    7.7559  -16.3596   18.3300 C   0  0  0  0  0  0  0  0  0  0  0  0
    8.6583  -16.1883   17.1654 C   0  0  0  0  0  0  0  0  0  0  0  0
    8.3293  -16.9820   15.9492 C   0  0  0  0  0  0  0  0  0  0  0  0
    9.2566  -16.7066   14.7906 C   0  0  0  0  0  0  0  0  0  0  0  0
    8.8790  -17.4851   13.6280 N   0  0  0  0  0  0  0  0  0  0  0  0
    7.5925  -16.9104   20.7394 C   0  0  0  0  0  0  0  0  0  0  0  0
    6.4725  -16.3419   20.7837 O   0  0  0  0  0  0  0  0  0  0  0  0
    8.6492  -18.8799   24.3409 O   0  0  0  0  0  0  0  0  0  0  0  0
    7.3997  -18.3818   23.9555 C   0  0  0  0  0  0  0  0  0  0  0  0
    7.5721  -17.0196   23.2697 C   0  0  2  0  0  0  0  0  0  0  0  0
    8.1727  -17.2623   21.9952 N   0  0  0  0  0  0  0  0  0  0  0  0
    8.4587  -16.1460   24.1299 C   0  0  0  0  0  0  0  0  0  0  0  0
    9.6926  -16.0985   23.9116 O   0  0  0  0  0  0  0  0  0  0  0  0
    6.1148  -11.5928   25.7387 C   0  0  0  0  0  0  0  0  0  0  0  0
    7.1770  -12.5985   25.2777 C   0  0  0  0  0  0  0  0  0  0  0  0
    7.7309  -13.3463   26.4586 C   0  0  2  0  0  0  0  0  0  0  0  0
    8.4138  -12.3274   27.3657 C   0  0  0  0  0  0  0  0  0  0  0  0
    8.5691  -14.4961   26.0775 C   0  0  2  0  0  0  0  0  0  0  0  0
    7.8923  -15.4025   25.1576 N   0  0  0  0  0  0  0  0  0  0  0  0
    9.1806  -15.1616   27.2365 C   0  0  0  0  0  0  0  0  0  0  0  0
   10.3415  -14.6666   27.7990 O   0  0  0  0  0  0  0  0  0  0  0  0
    8.6898  -16.1748   27.7539 O   0  0  0  0  0  0  0  0  0  0  0  0
  2  1  1  6
  3  2  1  0
  4  3  1  0
  5  6  1  0
  5  4  1  0
  6  7  1  0
  8  2  1  0
  8  9  2  0
 10 11  1  0
 12 11  1  1
 12 13  1  0
 13  8  1  0
 14 12  1  0
 15 14  2  0
 17 16  1  0
 18 17  1  0
 18 19  1  6
 20 18  1  0
 20 21  1  1
 21 14  1  0
 22 20  1  0
 23 22  1  0
 24 22  2  0
M  END
$$$$
