KSI.pdb
     RDKit          3D

 24 23  0  0  1  0  0  0  0  0999 V2000
    8.7785  -15.7278   18.9724 N   0  0  0  0  0  0  0  0  0  0  0  0
    8.5823  -14.4796   19.6741 C   0  0  1  0  0  0  0  0  0  0  0  0
    7.5611  -13.6359   18.9869 C   0  0  0  0  0  0  0  0  0  0  0  0
    7.2701  -13.9840   17.5747 C   0  0  0  0  0  0  0  0  0  0  0  0
    8.3795  -13.7875   16.6012 C   0  0  0  0  0  0  0  0  0  0  0  0
    7.9783  -14.0790   15.1757 C   0  0  0  0  0  0  0  0  0  0  0  0
    9.1104  -13.9455   14.2809 N   0  0  0  0  0  0  0  0  0  0  0  0
    8.1929  -14.8058   21.0767 C   0  0  0  0  0  0  0  0  0  0  0  0
    7.7424  -13.9326   21.8604 O   0  0  0  0  0  0  0  0  0  0  0  0
    9.6311  -18.2136   22.9729 O   0  0  0  0  0  0  0  0  0  0  0  0
    8.2495  -18.0121   23.0654 C   0  0  0  0  0  0  0  0  0  0  0  0
    7.9317  -16.5170   22.9256 C   0  0  2  0  0  0  0  0  0  0  0  0
    8.3111  -16.1272   21.6034 N   0  0  0  0  0  0  0  0  0  0  0  0
    8.7188  -15.7490   23.9647 C   0  0  0  0  0  0  0  0  0  0  0  0
    9.9080  -15.4239   23.7356 O   0  0  0  0  0  0  0  0  0  0  0  0
    6.0827  -11.9204   26.2879 C   0  0  0  0  0  0  0  0  0  0  0  0
    7.2826  -12.7132   25.7549 C   0  0  0  0  0  0  0  0  0  0  0  0
    7.8046  -13.6411   26.8166 C   0  0  2  0  0  0  0  0  0  0  0  0
    8.4084  -12.7788   27.9208 C   0  0  0  0  0  0  0  0  0  0  0  0
    8.6987  -14.6853   26.2875 C   0  0  2  0  0  0  0  0  0  0  0  0
    8.1115  -15.4110   25.1675 N   0  0  0  0  0  0  0  0  0  0  0  0
    9.2484  -15.5492   27.3418 C   0  0  0  0  0  0  0  0  0  0  0  0
   10.3747  -15.1683   28.0459 O   0  0  0  0  0  0  0  0  0  0  0  0
    8.7344  -16.6354   27.6436 O   0  0  0  0  0  0  0  0  0  0  0  0
  2  1  1  6
  3  2  1  0
  4  3  1  0
  5  6  1  0
  5  4  1  0
  6  7  1  0
  8  2  1  0
  8  9  2  0
 10 11  1  0
 12 11  1  6
 12 13  1  0
 13  8  1  0
 14 12  1  0
 15 14  2  0
 17 16  1  0
 18 17  1  0
 18 19  1  1
 20 18  1  0
 20 21  1  6
 21 14  1  0
 22 20  1  0
 23 22  1  0
 24 22  2  0
M  END
$$$$
