KSI.pdb
     RDKit          3D

 24 23  0  0  1  0  0  0  0  0999 V2000
   12.2653  -17.1589   19.5835 N   0  0  0  0  0  0  0  0  0  0  0  0
   11.0652  -17.6372   20.2314 C   0  0  1  0  0  0  0  0  0  0  0  0
   11.3844  -18.7018   21.2274 C   0  0  0  0  0  0  0  0  0  0  0  0
   12.6367  -18.5176   22.0006 C   0  0  0  0  0  0  0  0  0  0  0  0
   13.0787  -19.6714   22.8317 C   0  0  0  0  0  0  0  0  0  0  0  0
   14.2701  -19.3551   23.7026 C   0  0  0  0  0  0  0  0  0  0  0  0
   14.5801  -20.4658   24.5804 N   0  0  0  0  0  0  0  0  0  0  0  0
   10.3909  -16.4631   20.8577 C   0  0  0  0  0  0  0  0  0  0  0  0
   11.0408  -15.4815   21.2978 O   0  0  0  0  0  0  0  0  0  0  0  0
    6.3135  -16.7169   21.6300 O   0  0  0  0  0  0  0  0  0  0  0  0
    6.7834  -15.4666   21.2130 C   0  0  0  0  0  0  0  0  0  0  0  0
    8.2607  -15.3112   21.5993 C   0  0  2  0  0  0  0  0  0  0  0  0
    8.9715  -16.3921   20.9905 N   0  0  0  0  0  0  0  0  0  0  0  0
    8.3816  -15.3628   23.1065 C   0  0  0  0  0  0  0  0  0  0  0  0
    8.9796  -16.3191   23.6546 O   0  0  0  0  0  0  0  0  0  0  0  0
    6.6255  -11.4217   27.6365 C   0  0  0  0  0  0  0  0  0  0  0  0
    7.2959  -12.7475   27.2557 C   0  0  0  0  0  0  0  0  0  0  0  0
    7.1092  -13.0212   25.7892 C   0  0  2  0  0  0  0  0  0  0  0  0
    5.6084  -13.0432   25.5156 C   0  0  0  0  0  0  0  0  0  0  0  0
    7.8413  -14.2110   25.3221 C   0  0  2  0  0  0  0  0  0  0  0  0
    7.8256  -14.3443   23.8703 N   0  0  0  0  0  0  0  0  0  0  0  0
    7.4567  -15.4331   26.0424 C   0  0  0  0  0  0  0  0  0  0  0  0
    8.1284  -15.8139   27.1882 O   0  0  0  0  0  0  0  0  0  0  0  0
    6.5280  -16.1608   25.6639 O   0  0  0  0  0  0  0  0  0  0  0  0
  2  1  1  1
  3  2  1  0
  4  3  1  0
  5  6  1  0
  5  4  1  0
  6  7  1  0
  8  2  1  0
  8  9  2  0
 10 11  1  0
 12 11  1  1
 12 13  1  0
 13  8  1  0
 14 12  1  0
 15 14  2  0
 17 16  1  0
 18 17  1  0
 18 19  1  1
 20 18  1  0
 20 21  1  6
 21 14  1  0
 22 20  1  0
 23 22  1  0
 24 22  2  0
M  END
$$$$
