KSI.pdb
     RDKit          3D

 24 23  0  0  1  0  0  0  0  0999 V2000
   10.7860  -17.4225   19.5527 N   0  0  0  0  0  0  0  0  0  0  0  0
   11.4249  -17.8928   20.7607 C   0  0  1  0  0  0  0  0  0  0  0  0
   12.8367  -17.4155   20.8383 C   0  0  0  0  0  0  0  0  0  0  0  0
   13.7454  -17.8888   19.7658 C   0  0  0  0  0  0  0  0  0  0  0  0
   15.1682  -17.4607   19.8653 C   0  0  0  0  0  0  0  0  0  0  0  0
   16.0475  -18.0674   18.7991 C   0  0  0  0  0  0  0  0  0  0  0  0
   17.4291  -17.6677   18.9773 N   0  0  0  0  0  0  0  0  0  0  0  0
   10.6069  -17.4240   21.9168 C   0  0  0  0  0  0  0  0  0  0  0  0
   10.1308  -16.2619   21.9649 O   0  0  0  0  0  0  0  0  0  0  0  0
    9.9032  -20.0413   25.1742 O   0  0  0  0  0  0  0  0  0  0  0  0
    8.9078  -19.1625   24.7330 C   0  0  0  0  0  0  0  0  0  0  0  0
    9.5516  -17.8871   24.1721 C   0  0  2  0  0  0  0  0  0  0  0  0
   10.3214  -18.2706   23.0300 N   0  0  0  0  0  0  0  0  0  0  0  0
   10.4318  -17.2723   25.2382 C   0  0  0  0  0  0  0  0  0  0  0  0
   11.6741  -17.4378   25.1969 O   0  0  0  0  0  0  0  0  0  0  0  0
    8.5181  -12.6947   27.4705 C   0  0  0  0  0  0  0  0  0  0  0  0
    9.4840  -13.7459   26.9099 C   0  0  0  0  0  0  0  0  0  0  0  0
    9.7896  -14.7807   27.9568 C   0  0  2  0  0  0  0  0  0  0  0  0
   10.4900  -14.0704   29.1112 C   0  0  0  0  0  0  0  0  0  0  0  0
   10.5064  -15.9523   27.4244 C   0  0  2  0  0  0  0  0  0  0  0  0
    9.8501  -16.5275   26.2564 N   0  0  0  0  0  0  0  0  0  0  0  0
   10.8461  -16.9315   28.4664 C   0  0  0  0  0  0  0  0  0  0  0  0
   10.0970  -18.0824   28.6198 O   0  0  0  0  0  0  0  0  0  0  0  0
   11.8035  -16.7740   29.2369 O   0  0  0  0  0  0  0  0  0  0  0  0
  2  1  1  6
  3  2  1  0
  4  3  1  0
  5  6  1  0
  5  4  1  0
  6  7  1  0
  8  2  1  0
  8  9  2  0
 10 11  1  0
 12 11  1  1
 12 13  1  0
 13  8  1  0
 14 12  1  0
 15 14  2  0
 17 16  1  0
 18 17  1  0
 18 19  1  1
 20 18  1  0
 20 21  1  6
 21 14  1  0
 22 20  1  0
 23 22  1  0
 24 22  2  0
M  END
$$$$
