KSI.pdb
     RDKit          3D

 24 23  0  0  1  0  0  0  0  0999 V2000
    6.3770  -16.0203   19.3454 N   0  0  0  0  0  0  0  0  0  0  0  0
    7.4682  -15.3636   20.0285 C   0  0  1  0  0  0  0  0  0  0  0  0
    7.3790  -13.8818   19.8757 C   0  0  0  0  0  0  0  0  0  0  0  0
    7.4550  -13.3632   18.4881 C   0  0  0  0  0  0  0  0  0  0  0  0
    8.5256  -13.9338   17.6247 C   0  0  0  0  0  0  0  0  0  0  0  0
    8.5472  -13.3433   16.2358 C   0  0  0  0  0  0  0  0  0  0  0  0
    9.5226  -14.0162   15.4015 N   0  0  0  0  0  0  0  0  0  0  0  0
    7.4262  -15.7864   21.4585 C   0  0  0  0  0  0  0  0  0  0  0  0
    6.3610  -15.7670   22.1253 O   0  0  0  0  0  0  0  0  0  0  0  0
   10.8723  -17.4241   23.2085 O   0  0  0  0  0  0  0  0  0  0  0  0
    9.5969  -17.7907   23.6522 C   0  0  0  0  0  0  0  0  0  0  0  0
    8.6402  -16.5970   23.5283 C   0  0  2  0  0  0  0  0  0  0  0  0
    8.5939  -16.2356   22.1458 N   0  0  0  0  0  0  0  0  0  0  0  0
    9.1682  -15.4559   24.3701 C   0  0  0  0  0  0  0  0  0  0  0  0
   10.2063  -14.8465   24.0188 O   0  0  0  0  0  0  0  0  0  0  0  0
    5.6907  -12.2823   27.4646 C   0  0  0  0  0  0  0  0  0  0  0  0
    6.5571  -13.4778   27.0495 C   0  0  0  0  0  0  0  0  0  0  0  0
    7.9357  -13.0130   26.6705 C   0  0  2  0  0  0  0  0  0  0  0  0
    7.7955  -12.1208   25.4409 C   0  0  0  0  0  0  0  0  0  0  0  0
    8.9024  -14.1154   26.5287 C   0  0  2  0  0  0  0  0  0  0  0  0
    8.4929  -15.0945   25.5290 N   0  0  0  0  0  0  0  0  0  0  0  0
    9.2894  -14.7004   27.8203 C   0  0  0  0  0  0  0  0  0  0  0  0
    9.1206  -16.0510   28.0585 O   0  0  0  0  0  0  0  0  0  0  0  0
    9.7787  -14.0226   28.7348 O   0  0  0  0  0  0  0  0  0  0  0  0
  2  1  1  6
  3  2  1  0
  4  3  1  0
  5  6  1  0
  5  4  1  0
  6  7  1  0
  8  2  1  0
  8  9  2  0
 10 11  1  0
 12 11  1  6
 12 13  1  0
 13  8  1  0
 14 12  1  0
 15 14  2  0
 17 16  1  0
 18 17  1  0
 18 19  1  6
 20 18  1  0
 20 21  1  6
 21 14  1  0
 22 20  1  0
 23 22  1  0
 24 22  2  0
M  END
$$$$
