KSI.pdb
     RDKit          3D

 24 23  0  0  1  0  0  0  0  0999 V2000
    7.3189  -16.7859   18.4192 N   0  0  0  0  0  0  0  0  0  0  0  0
    8.0415  -15.9241   19.3268 C   0  0  1  0  0  0  0  0  0  0  0  0
    7.9831  -14.5033   18.8739 C   0  0  0  0  0  0  0  0  0  0  0  0
    7.3243  -14.2615   17.5672 C   0  0  0  0  0  0  0  0  0  0  0  0
    8.2215  -13.9579   16.4183 C   0  0  0  0  0  0  0  0  0  0  0  0
    7.4728  -13.6463   15.1453 C   0  0  0  0  0  0  0  0  0  0  0  0
    8.3892  -13.3117   14.0736 N   0  0  0  0  0  0  0  0  0  0  0  0
    7.4560  -16.1069   20.6866 C   0  0  0  0  0  0  0  0  0  0  0  0
    6.2574  -15.8231   20.9366 O   0  0  0  0  0  0  0  0  0  0  0  0
    9.3239  -18.4589   23.6293 O   0  0  0  0  0  0  0  0  0  0  0  0
    7.9602  -18.1491   23.5837 C   0  0  0  0  0  0  0  0  0  0  0  0
    7.7723  -16.6950   23.1297 C   0  0  2  0  0  0  0  0  0  0  0  0
    8.2260  -16.6140   21.7763 N   0  0  0  0  0  0  0  0  0  0  0  0
    8.5858  -15.7911   24.0299 C   0  0  0  0  0  0  0  0  0  0  0  0
    9.7545  -15.4722   23.7062 O   0  0  0  0  0  0  0  0  0  0  0  0
    6.1565  -11.5710   26.0276 C   0  0  0  0  0  0  0  0  0  0  0  0
    7.2459  -12.5257   25.5235 C   0  0  0  0  0  0  0  0  0  0  0  0
    7.7554  -13.3753   26.6544 C   0  0  2  0  0  0  0  0  0  0  0  0
    8.3574  -12.4370   27.6959 C   0  0  0  0  0  0  0  0  0  0  0  0
    8.6466  -14.4608   26.2103 C   0  0  2  0  0  0  0  0  0  0  0  0
    8.0254  -15.3224   25.2114 N   0  0  0  0  0  0  0  0  0  0  0  0
    9.2604  -15.1859   27.3317 C   0  0  0  0  0  0  0  0  0  0  0  0
    8.9753  -16.5210   27.5451 O   0  0  0  0  0  0  0  0  0  0  0  0
   10.0489  -14.6440   28.1190 O   0  0  0  0  0  0  0  0  0  0  0  0
  2  1  1  6
  3  2  1  0
  4  3  1  0
  5  6  1  0
  5  4  1  0
  6  7  1  0
  8  2  1  0
  8  9  2  0
 10 11  1  0
 12 11  1  1
 12 13  1  0
 13  8  1  0
 14 12  1  0
 15 14  2  0
 17 16  1  0
 18 17  1  0
 18 19  1  1
 20 18  1  0
 20 21  1  1
 21 14  1  0
 22 20  1  0
 23 22  1  0
 24 22  2  0
M  END
$$$$
