REM.pdb
     RDKit          3D

 29 28  0  0  1  0  0  0  0  0999 V2000
    7.9149  -13.1592   16.4969 N   0  0  0  0  0  0  0  0  0  0  0  0
    8.3127  -14.4182   17.0288 C   0  0  0  0  0  0  0  0  0  0  0  0
    8.5047  -15.4699   16.3240 N   0  0  0  0  0  0  0  0  0  0  0  0
    8.5099  -14.5070   18.4508 N   0  0  0  0  0  0  0  0  0  0  0  0
    8.2510  -13.3817   19.3068 C   0  0  0  0  0  0  0  0  0  0  0  0
    7.1111  -13.6698   20.2214 C   0  0  0  0  0  0  0  0  0  0  0  0
    7.3252  -14.7574   21.2129 C   0  0  0  0  0  0  0  0  0  0  0  0
    8.2990  -15.8136   20.7834 C   0  0  2  0  0  0  0  0  0  0  0  0
    7.7641  -16.6283   19.7103 N   0  0  0  0  0  0  0  0  0  0  0  0
    8.7176  -16.6913   21.8898 C   0  0  0  0  0  0  0  0  0  0  0  0
    8.5021  -17.9296   21.8437 O   0  0  0  0  0  0  0  0  0  0  0  0
    8.7049  -16.3961   16.7420 N   0  0  0  0  0  0  0  0  0  0  0  0
    9.3741  -16.1912   23.0443 C   0  0  1  0  0  0  0  0  0  0  0  0
   10.3414  -16.9188   23.8181 C   0  0  0  0  0  0  0  0  0  0  0  0
   11.2660  -17.7391   22.9923 C   0  0  0  0  0  0  0  0  0  0  0  0
   12.0483  -17.0828   21.9337 C   0  0  0  0  0  0  0  0  0  0  0  0
   12.8830  -17.8857   21.0644 O   0  0  0  0  0  0  0  0  0  0  0  0
   12.5399  -18.3636   19.9664 C   0  0  0  0  0  0  0  0  0  0  0  0
   10.9509  -16.1766   24.9303 O   0  0  0  0  0  0  0  0  0  0  0  0
   12.0674  -16.5571   25.4306 O   0  0  0  0  0  0  0  0  0  0  0  0
   14.2261  -18.2043   21.4186 C   0  0  0  0  0  0  0  0  0  0  0  0
    5.5430  -12.3476   25.9894 S   0  0  0  0  0  0  0  0  0  0  0  0
    6.9912  -12.3587   27.1126 C   0  0  0  0  0  0  0  0  0  0  0  0
    8.1910  -13.5462   26.4435 C   0  0  0  0  0  0  0  0  0  0  0  0
    9.4115  -13.6652   27.3162 C   0  0  1  0  0  0  0  0  0  0  0  0
   10.3232  -14.7984   26.9648 N   0  0  0  0  0  0  0  0  0  0  0  0
   10.3863  -15.0192   25.5307 C   0  0  0  0  0  0  0  0  0  0  0  0
    9.8264  -16.0345   27.5951 O   0  0  0  0  0  0  0  0  0  0  0  0
   10.1157  -16.2779   28.9276 O   0  0  0  0  0  0  0  0  0  0  0  0
  2  3  2  0
  2  1  1  0
  4  2  1  0
  5  4  1  0
  6  5  1  0
  7  8  1  0
  7  6  1  0
  8  9  1  6
 10  8  1  0
 10 12  1  0
 11 10  2  0
 13 12  1  0
 13 18  1  0
 13 14  1  1
 15 14  1  0
 15 16  1  0
 16 17  2  0
 18 26  1  0
 19 18  2  0
 20 16  1  0
 21 22  1  0
 22 23  1  0
 23 24  1  0
 25 24  1  6
 25 27  1  0
 26 25  1  0
 27 29  2  0
 27 28  1  0
M  END
$$$$
