REM.pdb
     RDKit          3D

 29 28  0  0  1  0  0  0  0  0999 V2000
    9.6352  -15.3774   16.3777 N   0  0  0  0  0  0  0  0  0  0  0  0
    8.9972  -14.1932   15.9118 C   0  0  0  0  0  0  0  0  0  0  0  0
    8.8439  -13.8959   14.6758 N   0  0  0  0  0  0  0  0  0  0  0  0
    8.4948  -13.2761   16.8995 N   0  0  0  0  0  0  0  0  0  0  0  0
    8.5106  -13.6101   18.2973 C   0  0  0  0  0  0  0  0  0  0  0  0
    7.1674  -14.0778   18.7400 C   0  0  0  0  0  0  0  0  0  0  0  0
    7.0356  -14.4228   20.1807 C   0  0  0  0  0  0  0  0  0  0  0  0
    8.2169  -15.1391   20.7636 C   0  0  2  0  0  0  0  0  0  0  0  0
    8.5460  -16.3305   20.0063 N   0  0  0  0  0  0  0  0  0  0  0  0
    8.0242  -15.5064   22.1770 C   0  0  0  0  0  0  0  0  0  0  0  0
    7.6003  -14.6623   23.0076 O   0  0  0  0  0  0  0  0  0  0  0  0
    8.3122  -13.0648   14.3608 N   0  0  0  0  0  0  0  0  0  0  0  0
    8.3028  -16.8100   22.6639 C   0  0  2  0  0  0  0  0  0  0  0  0
    8.2809  -17.1907   24.0489 C   0  0  0  0  0  0  0  0  0  0  0  0
    8.2925  -18.6622   24.2599 C   0  0  0  0  0  0  0  0  0  0  0  0
    8.2831  -19.1849   25.6347 C   0  0  0  0  0  0  0  0  0  0  0  0
    8.3354  -20.6156   25.8522 O   0  0  0  0  0  0  0  0  0  0  0  0
    9.0182  -21.4254   25.1965 C   0  0  0  0  0  0  0  0  0  0  0  0
    9.1461  -16.4017   24.9367 O   0  0  0  0  0  0  0  0  0  0  0  0
   10.3785  -16.2118   24.6422 O   0  0  0  0  0  0  0  0  0  0  0  0
    7.5715  -21.2339   26.8841 C   0  0  0  0  0  0  0  0  0  0  0  0
    5.8393  -12.2375   27.5848 S   0  0  0  0  0  0  0  0  0  0  0  0
    7.3273  -11.3797   26.9454 C   0  0  0  0  0  0  0  0  0  0  0  0
    8.4819  -12.6534   26.3605 C   0  0  0  0  0  0  0  0  0  0  0  0
    8.7368  -13.7049   27.4068 C   0  0  2  0  0  0  0  0  0  0  0  0
    9.5290  -14.8816   26.9305 N   0  0  0  0  0  0  0  0  0  0  0  0
    8.7189  -15.8016   26.1517 C   0  0  0  0  0  0  0  0  0  0  0  0
   10.0586  -15.6136   28.0948 O   0  0  0  0  0  0  0  0  0  0  0  0
   11.0638  -15.0391   28.8552 O   0  0  0  0  0  0  0  0  0  0  0  0
  2  3  2  0
  2  1  1  0
  4  2  1  0
  5  4  1  0
  6  5  1  0
  7  8  1  0
  7  6  1  0
  8  9  1  6
 10  8  1  0
 10 12  1  0
 11 10  2  0
 13 12  1  0
 13 18  1  0
 13 14  1  6
 15 14  1  0
 15 16  1  0
 16 17  2  0
 18 26  1  0
 19 18  2  0
 20 16  1  0
 21 22  1  0
 22 23  1  0
 23 24  1  0
 25 24  1  6
 25 27  1  0
 26 25  1  0
 27 29  2  0
 27 28  1  0
M  END
$$$$
