REM.pdb
     RDKit          3D

 29 28  0  0  1  0  0  0  0  0999 V2000
    6.6761  -13.6946   14.8660 N   0  0  0  0  0  0  0  0  0  0  0  0
    7.8840  -14.4264   15.0443 C   0  0  0  0  0  0  0  0  0  0  0  0
    8.2319  -15.4285   14.3270 N   0  0  0  0  0  0  0  0  0  0  0  0
    8.7656  -14.0071   16.1006 N   0  0  0  0  0  0  0  0  0  0  0  0
    8.2834  -13.2131   17.1974 C   0  0  0  0  0  0  0  0  0  0  0  0
    7.2392  -13.9520   17.9605 C   0  0  0  0  0  0  0  0  0  0  0  0
    7.7206  -15.0677   18.8180 C   0  0  0  0  0  0  0  0  0  0  0  0
    8.9266  -14.7440   19.6482 C   0  0  2  0  0  0  0  0  0  0  0  0
   10.1567  -15.0001   18.9253 N   0  0  0  0  0  0  0  0  0  0  0  0
    8.9578  -15.4787   20.9245 C   0  0  0  0  0  0  0  0  0  0  0  0
    8.0451  -15.3249   21.7762 O   0  0  0  0  0  0  0  0  0  0  0  0
    9.0997  -15.9668   14.4992 N   0  0  0  0  0  0  0  0  0  0  0  0
   10.0025  -16.3819   21.2513 C   0  0  1  0  0  0  0  0  0  0  0  0
   10.1091  -17.0991   22.4914 C   0  0  0  0  0  0  0  0  0  0  0  0
   11.1188  -18.1898   22.4610 C   0  0  0  0  0  0  0  0  0  0  0  0
   12.2762  -18.0644   21.5621 C   0  0  0  0  0  0  0  0  0  0  0  0
   13.4807  -18.8172   21.8439 O   0  0  0  0  0  0  0  0  0  0  0  0
   13.7452  -19.3886   22.9188 C   0  0  0  0  0  0  0  0  0  0  0  0
   10.0846  -16.2722   23.7058 O   0  0  0  0  0  0  0  0  0  0  0  0
   11.0585  -15.4843   23.9751 O   0  0  0  0  0  0  0  0  0  0  0  0
   14.5037  -18.9676   20.8633 C   0  0  0  0  0  0  0  0  0  0  0  0
    7.3126  -10.8781   27.9514 S   0  0  0  0  0  0  0  0  0  0  0  0
    7.3996  -11.8787   26.4184 C   0  0  0  0  0  0  0  0  0  0  0  0
    7.4771  -13.6249   26.9107 C   0  0  0  0  0  0  0  0  0  0  0  0
    7.6802  -14.5342   25.7287 C   0  0  1  0  0  0  0  0  0  0  0  0
    8.9412  -15.3388   25.7684 N   0  0  0  0  0  0  0  0  0  0  0  0
    9.0274  -16.2675   24.6551 C   0  0  0  0  0  0  0  0  0  0  0  0
    8.9797  -16.1197   27.0176 O   0  0  0  0  0  0  0  0  0  0  0  0
    9.1316  -17.4949   26.9515 O   0  0  0  0  0  0  0  0  0  0  0  0
  2  3  2  0
  2  1  1  0
  4  2  1  0
  5  4  1  0
  6  5  1  0
  7  8  1  0
  7  6  1  0
  8  9  1  6
 10  8  1  0
 10 12  1  0
 11 10  2  0
 13 12  1  0
 13 18  1  0
 13 14  1  1
 15 14  1  0
 15 16  1  0
 16 17  2  0
 18 26  1  0
 19 18  2  0
 20 16  1  0
 21 22  1  0
 22 23  1  0
 23 24  1  0
 25 24  1  6
 25 27  1  0
 26 25  1  0
 27 29  2  0
 27 28  1  0
M  END
$$$$
