REM.pdb
     RDKit          3D

 29 28  0  0  1  0  0  0  0  0999 V2000
    7.4257  -13.5522   14.9730 N   0  0  0  0  0  0  0  0  0  0  0  0
    8.3482  -14.5609   15.3703 C   0  0  0  0  0  0  0  0  0  0  0  0
    8.5296  -15.6603   14.7394 N   0  0  0  0  0  0  0  0  0  0  0  0
    9.1231  -14.3225   16.5584 N   0  0  0  0  0  0  0  0  0  0  0  0
    8.6724  -13.4007   17.5649 C   0  0  0  0  0  0  0  0  0  0  0  0
    7.4550  -13.9224   18.2464 C   0  0  0  0  0  0  0  0  0  0  0  0
    7.6509  -14.4547   19.6212 C   0  0  0  0  0  0  0  0  0  0  0  0
    7.9182  -15.9286   19.6899 C   0  0  2  0  0  0  0  0  0  0  0  0
    6.7920  -16.6988   19.2002 N   0  0  0  0  0  0  0  0  0  0  0  0
    8.2591  -16.3866   21.0478 C   0  0  0  0  0  0  0  0  0  0  0  0
    7.3555  -16.6548   21.8806 O   0  0  0  0  0  0  0  0  0  0  0  0
    9.1686  -16.4019   15.0776 N   0  0  0  0  0  0  0  0  0  0  0  0
    9.6025  -16.5454   21.4768 C   0  0  1  0  0  0  0  0  0  0  0  0
   10.0002  -16.9409   22.7993 C   0  0  0  0  0  0  0  0  0  0  0  0
   11.3389  -17.5854   22.8483 C   0  0  0  0  0  0  0  0  0  0  0  0
   12.4036  -17.0843   21.9659 C   0  0  0  0  0  0  0  0  0  0  0  0
   13.6959  -17.7378   21.9683 O   0  0  0  0  0  0  0  0  0  0  0  0
   14.6792  -17.4052   21.2796 C   0  0  0  0  0  0  0  0  0  0  0  0
    9.7074  -15.9727   23.8652 O   0  0  0  0  0  0  0  0  0  0  0  0
   10.1712  -14.7799   23.8047 O   0  0  0  0  0  0  0  0  0  0  0  0
   13.9511  -18.8661   22.8005 C   0  0  0  0  0  0  0  0  0  0  0  0
    6.8863  -11.1918   28.0879 S   0  0  0  0  0  0  0  0  0  0  0  0
    7.0994  -12.1915   26.5666 C   0  0  0  0  0  0  0  0  0  0  0  0
    6.6560  -13.9048   26.9735 C   0  0  0  0  0  0  0  0  0  0  0  0
    7.1168  -14.8715   25.9159 C   0  0  1  0  0  0  0  0  0  0  0  0
    8.5579  -15.2626   26.0116 N   0  0  0  0  0  0  0  0  0  0  0  0
    8.9186  -16.2536   25.0131 C   0  0  0  0  0  0  0  0  0  0  0  0
    8.8167  -15.8408   27.3423 O   0  0  0  0  0  0  0  0  0  0  0  0
    9.3466  -17.1173   27.4338 O   0  0  0  0  0  0  0  0  0  0  0  0
  2  3  2  0
  2  1  1  0
  4  2  1  0
  5  4  1  0
  6  5  1  0
  7  8  1  0
  7  6  1  0
  8  9  1  1
 10  8  1  0
 10 12  1  0
 11 10  2  0
 13 12  1  0
 13 18  1  0
 13 14  1  6
 15 14  1  0
 15 16  1  0
 16 17  2  0
 18 26  1  0
 19 18  2  0
 20 16  1  0
 21 22  1  0
 22 23  1  0
 23 24  1  0
 25 24  1  6
 25 27  1  0
 26 25  1  0
 27 29  2  0
 27 28  1  0
M  END
$$$$
