REM.pdb
     RDKit          3D

 29 28  0  0  1  0  0  0  0  0999 V2000
    7.9591  -12.6659   18.2280 N   0  0  0  0  0  0  0  0  0  0  0  0
    7.9168  -13.7590   17.3171 C   0  0  0  0  0  0  0  0  0  0  0  0
    8.3114  -13.6987   16.1004 N   0  0  0  0  0  0  0  0  0  0  0  0
    7.3956  -15.0089   17.8021 N   0  0  0  0  0  0  0  0  0  0  0  0
    7.7749  -15.5201   19.0908 C   0  0  0  0  0  0  0  0  0  0  0  0
    9.2571  -15.5220   19.2387 C   0  0  0  0  0  0  0  0  0  0  0  0
    9.7831  -15.9551   20.5607 C   0  0  0  0  0  0  0  0  0  0  0  0
    9.2860  -17.2914   21.0251 C   0  0  2  0  0  0  0  0  0  0  0  0
    7.9563  -17.5712   20.5204 N   0  0  0  0  0  0  0  0  0  0  0  0
    9.2803  -17.4223   22.4923 C   0  0  0  0  0  0  0  0  0  0  0  0
    8.2861  -17.0490   23.1662 O   0  0  0  0  0  0  0  0  0  0  0  0
    8.2935  -14.5156   15.4641 N   0  0  0  0  0  0  0  0  0  0  0  0
   10.3786  -17.9674   23.2068 C   0  0  2  0  0  0  0  0  0  0  0  0
   10.5804  -17.8405   24.6234 C   0  0  0  0  0  0  0  0  0  0  0  0
   11.6742  -18.7007   25.1463 C   0  0  0  0  0  0  0  0  0  0  0  0
   11.9344  -18.7212   26.5938 C   0  0  0  0  0  0  0  0  0  0  0  0
   12.4423  -19.9302   27.2082 O   0  0  0  0  0  0  0  0  0  0  0  0
   13.6418  -20.1847   27.4279 C   0  0  0  0  0  0  0  0  0  0  0  0
   10.5248  -16.4702   25.1511 O   0  0  0  0  0  0  0  0  0  0  0  0
   11.3373  -15.5762   24.7241 O   0  0  0  0  0  0  0  0  0  0  0  0
   11.5632  -20.9703   27.6282 C   0  0  0  0  0  0  0  0  0  0  0  0
    6.3987  -11.7956   25.2364 S   0  0  0  0  0  0  0  0  0  0  0  0
    6.6426  -11.8576   27.0518 C   0  0  0  0  0  0  0  0  0  0  0  0
    8.2191  -12.7039   27.3615 C   0  0  0  0  0  0  0  0  0  0  0  0
    8.3198  -14.0007   26.6041 C   0  0  1  0  0  0  0  0  0  0  0  0
    9.6356  -14.7011   26.7361 N   0  0  0  0  0  0  0  0  0  0  0  0
    9.6073  -16.0254   26.1406 C   0  0  0  0  0  0  0  0  0  0  0  0
    9.9649  -14.8504   28.1647 O   0  0  0  0  0  0  0  0  0  0  0  0
   10.3446  -13.7342   28.8918 O   0  0  0  0  0  0  0  0  0  0  0  0
  2  3  2  0
  2  1  1  0
  4  2  1  0
  5  4  1  0
  6  5  1  0
  7  8  1  0
  7  6  1  0
  8  9  1  1
 10  8  1  0
 10 12  1  0
 11 10  2  0
 13 12  1  0
 13 18  1  0
 13 14  1  6
 15 14  1  0
 15 16  1  0
 16 17  2  0
 18 26  1  0
 19 18  2  0
 20 16  1  0
 21 22  1  0
 22 23  1  0
 23 24  1  0
 25 24  1  6
 25 27  1  0
 26 25  1  0
 27 29  2  0
 27 28  1  0
M  END
$$$$
