REM.pdb
     RDKit          3D

 29 28  0  0  1  0  0  0  0  0999 V2000
    9.0653  -11.2733   19.9497 N   0  0  0  0  0  0  0  0  0  0  0  0
    8.4757  -12.3352   19.2074 C   0  0  0  0  0  0  0  0  0  0  0  0
    8.5000  -12.4217   17.9301 N   0  0  0  0  0  0  0  0  0  0  0  0
    7.8113  -13.3747   19.9471 N   0  0  0  0  0  0  0  0  0  0  0  0
    7.1640  -14.4666   19.2727 C   0  0  0  0  0  0  0  0  0  0  0  0
    6.4012  -15.3027   20.2411 C   0  0  0  0  0  0  0  0  0  0  0  0
    7.1365  -15.7265   21.4624 C   0  0  0  0  0  0  0  0  0  0  0  0
    7.6127  -17.1483   21.4448 C   0  0  2  0  0  0  0  0  0  0  0  0
    6.5063  -18.0808   21.3576 N   0  0  0  0  0  0  0  0  0  0  0  0
    8.4383  -17.4907   22.6157 C   0  0  0  0  0  0  0  0  0  0  0  0
    7.9029  -17.7735   23.7181 O   0  0  0  0  0  0  0  0  0  0  0  0
    8.1345  -13.2436   17.4167 N   0  0  0  0  0  0  0  0  0  0  0  0
    9.8561  -17.5180   22.5588 C   0  0  2  0  0  0  0  0  0  0  0  0
   10.7222  -17.5768   23.7034 C   0  0  0  0  0  0  0  0  0  0  0  0
   12.1105  -17.9953   23.3758 C   0  0  0  0  0  0  0  0  0  0  0  0
   12.3183  -19.0550   22.3772 C   0  0  0  0  0  0  0  0  0  0  0  0
   13.6416  -19.2653   21.8279 O   0  0  0  0  0  0  0  0  0  0  0  0
   14.6288  -19.6937   22.4553 C   0  0  0  0  0  0  0  0  0  0  0  0
   10.5876  -16.4673   24.6574 O   0  0  0  0  0  0  0  0  0  0  0  0
   10.9362  -15.2797   24.3261 O   0  0  0  0  0  0  0  0  0  0  0  0
   13.9266  -18.9836   20.4603 C   0  0  0  0  0  0  0  0  0  0  0  0
    6.6019  -12.0195   27.2056 S   0  0  0  0  0  0  0  0  0  0  0  0
    6.3785  -13.7065   26.5249 C   0  0  0  0  0  0  0  0  0  0  0  0
    8.0223  -14.3372   26.0803 C   0  0  0  0  0  0  0  0  0  0  0  0
    8.6893  -15.0333   27.2361 C   0  0  2  0  0  0  0  0  0  0  0  0
   10.0747  -15.5239   26.9551 N   0  0  0  0  0  0  0  0  0  0  0  0
   10.0819  -16.5990   25.9787 C   0  0  0  0  0  0  0  0  0  0  0  0
   10.6704  -16.0363   28.2019 O   0  0  0  0  0  0  0  0  0  0  0  0
   10.9905  -15.1467   29.2143 O   0  0  0  0  0  0  0  0  0  0  0  0
  2  3  2  0
  2  1  1  0
  4  2  1  0
  5  4  1  0
  6  5  1  0
  7  8  1  0
  7  6  1  0
  8  9  1  1
 10  8  1  0
 10 12  1  0
 11 10  2  0
 13 12  1  0
 13 18  1  0
 13 14  1  6
 15 14  1  0
 15 16  1  0
 16 17  2  0
 18 26  1  0
 19 18  2  0
 20 16  1  0
 21 22  1  0
 22 23  1  0
 23 24  1  0
 25 24  1  6
 25 27  1  0
 26 25  1  0
 27 29  2  0
 27 28  1  0
M  END
$$$$
