NES.pdb
     RDKit          3D

 24 23  0  0  1  0  0  0  0  0999 V2000
   14.7492  -13.7449  -10.2080 N   0  0  0  0  0  0  0  0  0  0  0  0
   15.8936  -13.3228  -10.9665 C   0  0  0  0  0  0  0  0  0  0  0  0
   16.7138  -14.2042  -11.3178 O   0  0  0  0  0  0  0  0  0  0  0  0
   16.0544  -11.9064  -11.2936 C   0  0  0  0  0  0  0  0  0  0  0  0
   15.0613  -10.9872  -10.6559 C   0  0  2  0  0  0  0  0  0  0  0  0
   13.7266  -11.2977  -11.1806 N   0  0  0  0  0  0  0  0  0  0  0  0
   15.4217   -9.5854  -10.9678 C   0  0  0  0  0  0  0  0  0  0  0  0
   15.2026   -9.0320  -12.0662 O   0  0  0  0  0  0  0  0  0  0  0  0
   16.0659   -8.7718   -9.9751 N   0  0  0  0  0  0  0  0  0  0  0  0
   16.3971   -7.3781  -10.1960 C   0  0  1  0  0  0  0  0  0  0  0  0
   15.8897   -6.5327   -9.0553 C   0  0  0  0  0  0  0  0  0  0  0  0
   16.2302   -5.0975   -9.3266 C   0  0  0  0  0  0  0  0  0  0  0  0
   15.5445   -4.2433   -8.3213 C   0  0  0  0  0  0  0  0  0  0  0  0
   14.3684   -4.4519   -7.9670 O   0  0  0  0  0  0  0  0  0  0  0  0
   17.8551   -7.2014  -10.4255 C   0  0  0  0  0  0  0  0  0  0  0  0
   18.6466   -7.3906   -9.4863 O   0  0  0  0  0  0  0  0  0  0  0  0
   16.2277   -3.1786   -7.7550 O   0  0  0  0  0  0  0  0  0  0  0  0
   20.3309   -8.9413  -12.4913 O   0  0  0  0  0  0  0  0  0  0  0  0
   20.3843   -7.6153  -12.8926 C   0  0  0  0  0  0  0  0  0  0  0  0
   19.7992   -6.6553  -11.9083 C   0  0  2  0  0  0  0  0  0  0  0  0
   18.3933   -6.8217  -11.6830 N   0  0  0  0  0  0  0  0  0  0  0  0
   19.9802   -5.2799  -12.4918 C   0  0  0  0  0  0  0  0  0  0  0  0
   18.9150   -4.4801  -12.8657 O   0  0  0  0  0  0  0  0  0  0  0  0
   21.1474   -4.8513  -12.6409 O   0  0  0  0  0  0  0  0  0  0  0  0
  1  2  1  0
  2  3  2  0
  4  2  1  0
  5  4  1  0
  5  6  1  6
  7  8  2  0
  7  5  1  0
  9  7  1  0
 10 11  1  1
 10  9  1  0
 11 12  1  0
 13 12  1  0
 13 17  1  0
 14 13  2  0
 15 10  1  0
 16 15  2  0
 19 18  1  0
 20 19  1  6
 20 21  1  0
 21 15  1  0
 22 23  1  0
 22 20  1  0
 24 22  2  0
M  END
$$$$
