NES.pdb
     RDKit          3D

 24 23  0  0  1  0  0  0  0  0999 V2000
   16.1803  -14.0839  -13.3893 N   0  0  0  0  0  0  0  0  0  0  0  0
   16.0163  -12.9256  -14.2229 C   0  0  0  0  0  0  0  0  0  0  0  0
   14.8546  -12.6443  -14.6027 O   0  0  0  0  0  0  0  0  0  0  0  0
   17.1901  -12.1339  -14.5894 C   0  0  0  0  0  0  0  0  0  0  0  0
   17.4798  -12.0627  -16.0553 C   0  0  2  0  0  0  0  0  0  0  0  0
   18.0861  -13.3302  -16.4783 N   0  0  0  0  0  0  0  0  0  0  0  0
   18.4070  -10.9382  -16.3166 C   0  0  0  0  0  0  0  0  0  0  0  0
   19.6373  -10.9787  -16.1033 O   0  0  0  0  0  0  0  0  0  0  0  0
   17.9048   -9.7026  -16.8490 N   0  0  0  0  0  0  0  0  0  0  0  0
   18.7544   -8.5583  -17.1133 C   0  0  1  0  0  0  0  0  0  0  0  0
   18.1006   -7.6417  -18.1160 C   0  0  0  0  0  0  0  0  0  0  0  0
   18.1670   -8.2798  -19.4717 C   0  0  0  0  0  0  0  0  0  0  0  0
   17.4388   -7.4209  -20.4425 C   0  0  0  0  0  0  0  0  0  0  0  0
   16.4984   -7.8550  -21.1351 O   0  0  0  0  0  0  0  0  0  0  0  0
   19.1151   -7.8540  -15.8548 C   0  0  0  0  0  0  0  0  0  0  0  0
   18.2457   -7.6795  -14.9842 O   0  0  0  0  0  0  0  0  0  0  0  0
   17.8111   -6.0938  -20.5885 O   0  0  0  0  0  0  0  0  0  0  0  0
   22.4193   -6.3012  -12.6783 O   0  0  0  0  0  0  0  0  0  0  0  0
   22.0481   -7.0659  -13.7736 C   0  0  0  0  0  0  0  0  0  0  0  0
   20.7614   -6.6436  -14.4054 C   0  0  2  0  0  0  0  0  0  0  0  0
   20.4224   -7.3648  -15.5971 N   0  0  0  0  0  0  0  0  0  0  0  0
   20.9349   -5.2044  -14.8098 C   0  0  0  0  0  0  0  0  0  0  0  0
   20.8487   -4.1587  -13.9081 O   0  0  0  0  0  0  0  0  0  0  0  0
   21.1664   -4.9541  -16.0149 O   0  0  0  0  0  0  0  0  0  0  0  0
  1  2  1  0
  2  3  2  0
  4  2  1  0
  5  4  1  0
  5  6  1  1
  7  8  2  0
  7  5  1  0
  9  7  1  0
 10 11  1  6
 10  9  1  0
 11 12  1  0
 13 12  1  0
 13 17  1  0
 14 13  2  0
 15 10  1  0
 16 15  2  0
 19 18  1  0
 20 19  1  6
 20 21  1  0
 21 15  1  0
 22 23  1  0
 22 20  1  0
 24 22  2  0
M  END
$$$$
