NES.pdb
     RDKit          3D

 24 23  0  0  1  0  0  0  0  0999 V2000
   28.5753  -11.7315  -15.9343 N   0  0  0  0  0  0  0  0  0  0  0  0
   27.2234  -12.0711  -16.2813 C   0  0  0  0  0  0  0  0  0  0  0  0
   26.9415  -13.2881  -16.3922 O   0  0  0  0  0  0  0  0  0  0  0  0
   26.2462  -11.0028  -16.4878 C   0  0  0  0  0  0  0  0  0  0  0  0
   24.9970  -11.4098  -17.2031 C   0  0  2  0  0  0  0  0  0  0  0  0
   25.3357  -11.7425  -18.5916 N   0  0  0  0  0  0  0  0  0  0  0  0
   24.0258  -10.2928  -17.1656 C   0  0  0  0  0  0  0  0  0  0  0  0
   23.9628   -9.3882  -18.0249 O   0  0  0  0  0  0  0  0  0  0  0  0
   23.0766  -10.2026  -16.0916 N   0  0  0  0  0  0  0  0  0  0  0  0
   22.0413   -9.1894  -16.0415 C   0  0  1  0  0  0  0  0  0  0  0  0
   20.8209   -9.7230  -15.3351 C   0  0  0  0  0  0  0  0  0  0  0  0
   20.1535  -10.7352  -16.2179 C   0  0  0  0  0  0  0  0  0  0  0  0
   19.0045  -11.3285  -15.4843 C   0  0  0  0  0  0  0  0  0  0  0  0
   18.7679  -12.5517  -15.5023 O   0  0  0  0  0  0  0  0  0  0  0  0
   22.5467   -7.9339  -15.4265 C   0  0  0  0  0  0  0  0  0  0  0  0
   23.4213   -7.9965  -14.5460 O   0  0  0  0  0  0  0  0  0  0  0  0
   18.1644  -10.5023  -14.7543 O   0  0  0  0  0  0  0  0  0  0  0  0
   22.8538   -4.2840  -17.3833 O   0  0  0  0  0  0  0  0  0  0  0  0
   22.3377   -4.2215  -16.0980 C   0  0  0  0  0  0  0  0  0  0  0  0
   22.6130   -5.4344  -15.2697 C   0  0  2  0  0  0  0  0  0  0  0  0
   22.0711   -6.6502  -15.8020 N   0  0  0  0  0  0  0  0  0  0  0  0
   21.9390   -5.2092  -13.9431 C   0  0  0  0  0  0  0  0  0  0  0  0
   22.3885   -4.2773  -13.0246 O   0  0  0  0  0  0  0  0  0  0  0  0
   20.9304   -5.8992  -13.6692 O   0  0  0  0  0  0  0  0  0  0  0  0
  1  2  1  0
  2  3  2  0
  4  2  1  0
  5  4  1  0
  5  6  1  6
  7  8  2  0
  7  5  1  0
  9  7  1  0
 10 11  1  1
 10  9  1  0
 11 12  1  0
 13 12  1  0
 13 17  1  0
 14 13  2  0
 15 10  1  0
 16 15  2  0
 19 18  1  0
 20 19  1  6
 20 21  1  0
 21 15  1  0
 22 23  1  0
 22 20  1  0
 24 22  2  0
M  END
$$$$
