NES.pdb
     RDKit          3D

 24 23  0  0  1  0  0  0  0  0999 V2000
   20.4890  -14.9576  -16.9743 N   0  0  0  0  0  0  0  0  0  0  0  0
   21.5824  -14.0261  -16.9907 C   0  0  0  0  0  0  0  0  0  0  0  0
   22.7437  -14.4937  -16.9149 O   0  0  0  0  0  0  0  0  0  0  0  0
   21.3031  -12.5942  -17.0937 C   0  0  0  0  0  0  0  0  0  0  0  0
   19.8533  -12.2254  -17.0989 C   0  0  2  0  0  0  0  0  0  0  0  0
   19.2622  -12.6542  -18.3716 N   0  0  0  0  0  0  0  0  0  0  0  0
   19.7211  -10.7592  -16.9401 C   0  0  0  0  0  0  0  0  0  0  0  0
   20.0967   -9.9244  -17.7902 O   0  0  0  0  0  0  0  0  0  0  0  0
   19.1294  -10.2166  -15.7494 N   0  0  0  0  0  0  0  0  0  0  0  0
   18.9641   -8.7928  -15.5331 C   0  0  1  0  0  0  0  0  0  0  0  0
   17.7588   -8.5319  -14.6657 C   0  0  0  0  0  0  0  0  0  0  0  0
   16.5254   -8.9439  -15.4129 C   0  0  0  0  0  0  0  0  0  0  0  0
   15.4069   -9.0972  -14.4454 C   0  0  0  0  0  0  0  0  0  0  0  0
   14.8610  -10.1969  -14.2332 O   0  0  0  0  0  0  0  0  0  0  0  0
   20.2022   -8.1857  -14.9779 C   0  0  0  0  0  0  0  0  0  0  0  0
   20.8867   -8.8325  -14.1672 O   0  0  0  0  0  0  0  0  0  0  0  0
   14.9504   -7.9867  -13.7528 O   0  0  0  0  0  0  0  0  0  0  0  0
   23.8417   -5.0519  -15.5976 O   0  0  0  0  0  0  0  0  0  0  0  0
   22.6260   -5.5842  -15.9990 C   0  0  0  0  0  0  0  0  0  0  0  0
   21.9193   -6.3620  -14.9366 C   0  0  2  0  0  0  0  0  0  0  0  0
   20.6452   -6.8851  -15.3343 N   0  0  0  0  0  0  0  0  0  0  0  0
   21.6554   -5.4027  -13.8074 C   0  0  0  0  0  0  0  0  0  0  0  0
   22.5100   -5.2648  -12.7281 O   0  0  0  0  0  0  0  0  0  0  0  0
   20.6164   -4.7052  -13.8566 O   0  0  0  0  0  0  0  0  0  0  0  0
  1  2  1  0
  2  3  2  0
  4  2  1  0
  5  4  1  0
  5  6  1  6
  7  8  2  0
  7  5  1  0
  9  7  1  0
 10 11  1  1
 10  9  1  0
 11 12  1  0
 13 12  1  0
 13 17  1  0
 14 13  2  0
 15 10  1  0
 16 15  2  0
 19 18  1  0
 20 19  1  6
 20 21  1  0
 21 15  1  0
 22 23  1  0
 22 20  1  0
 24 22  2  0
M  END
$$$$
