NES.pdb
     RDKit          3D

 24 23  0  0  1  0  0  0  0  0999 V2000
   19.3659  -14.4542  -15.7038 N   0  0  0  0  0  0  0  0  0  0  0  0
   19.0430  -13.0634  -15.5468 C   0  0  0  0  0  0  0  0  0  0  0  0
   17.8337  -12.7610  -15.4083 O   0  0  0  0  0  0  0  0  0  0  0  0
   20.1184  -12.0722  -15.5545 C   0  0  0  0  0  0  0  0  0  0  0  0
   19.7876  -10.7767  -16.2253 C   0  0  2  0  0  0  0  0  0  0  0  0
   19.6959  -11.0045  -17.6719 N   0  0  0  0  0  0  0  0  0  0  0  0
   20.8484   -9.7873  -15.9280 C   0  0  0  0  0  0  0  0  0  0  0  0
   21.2296   -9.4916  -14.7756 O   0  0  0  0  0  0  0  0  0  0  0  0
   21.5090   -9.0988  -17.0013 N   0  0  0  0  0  0  0  0  0  0  0  0
   22.4510   -8.0195  -16.7801 C   0  0  1  0  0  0  0  0  0  0  0  0
   23.3191   -7.8251  -17.9974 C   0  0  0  0  0  0  0  0  0  0  0  0
   24.3614   -6.7915  -17.6897 C   0  0  0  0  0  0  0  0  0  0  0  0
   25.1637   -6.5392  -18.9156 C   0  0  0  0  0  0  0  0  0  0  0  0
   24.9130   -7.1021  -19.9985 O   0  0  0  0  0  0  0  0  0  0  0  0
   21.7530   -6.7701  -16.3783 C   0  0  0  0  0  0  0  0  0  0  0  0
   20.7265   -6.4236  -16.9869 O   0  0  0  0  0  0  0  0  0  0  0  0
   26.2263   -5.6509  -18.8615 O   0  0  0  0  0  0  0  0  0  0  0  0
   21.1760   -5.5862  -12.5913 O   0  0  0  0  0  0  0  0  0  0  0  0
   21.6043   -4.5377  -13.3911 C   0  0  0  0  0  0  0  0  0  0  0  0
   21.4808   -4.7981  -14.8573 C   0  0  2  0  0  0  0  0  0  0  0  0
   22.2095   -5.9432  -15.3187 N   0  0  0  0  0  0  0  0  0  0  0  0
   22.0722   -3.6034  -15.5558 C   0  0  0  0  0  0  0  0  0  0  0  0
   21.6003   -2.3168  -15.3660 O   0  0  0  0  0  0  0  0  0  0  0  0
   23.0307   -3.7929  -16.3393 O   0  0  0  0  0  0  0  0  0  0  0  0
  1  2  1  0
  2  3  2  0
  4  2  1  0
  5  4  1  0
  5  6  1  6
  7  8  2  0
  7  5  1  0
  9  7  1  0
 10 11  1  6
 10  9  1  0
 11 12  1  0
 13 12  1  0
 13 17  1  0
 14 13  2  0
 15 10  1  0
 16 15  2  0
 19 18  1  0
 20 19  1  1
 20 21  1  0
 21 15  1  0
 22 23  1  0
 22 20  1  0
 24 22  2  0
M  END
$$$$
