EMG.pdb
     RDKit          3D

 22 21  0  0  1  0  0  0  0  0999 V2000
   20.8880  -19.8343  -12.6418 N   0  0  0  0  0  0  0  0  0  0  0  0
   21.5403  -20.7348  -11.7111 C   0  0  1  0  0  0  0  0  0  0  0  0
   21.3444  -22.1492  -12.2178 C   0  0  0  0  0  0  0  0  0  0  0  0
   20.5280  -22.0242  -13.4987 C   0  0  0  0  0  0  0  0  0  0  0  0
   19.2006  -22.6405  -13.3640 C   0  0  0  0  0  0  0  0  0  0  0  0
   19.0650  -23.8757  -13.2539 O   0  0  0  0  0  0  0  0  0  0  0  0
   22.9413  -20.3415  -11.5702 C   0  0  0  0  0  0  0  0  0  0  0  0
   23.5259  -19.6640  -12.4697 O   0  0  0  0  0  0  0  0  0  0  0  0
   18.0807  -21.8376  -13.3589 O   0  0  0  0  0  0  0  0  0  0  0  0
   28.7227  -19.2597   -6.2967 C   0  0  0  0  0  0  0  0  0  0  0  0
   27.1954  -20.1315   -6.7208 S   0  0  0  0  0  0  0  0  0  0  0  0
   26.7697  -19.9475   -8.4591 C   0  0  0  0  0  0  0  0  0  0  0  0
   25.4534  -20.6041   -8.7983 C   0  0  0  0  0  0  0  0  0  0  0  0
   25.0970  -20.3851  -10.2560 C   0  0  2  0  0  0  0  0  0  0  0  0
   23.6871  -20.7144  -10.4082 N   0  0  0  0  0  0  0  0  0  0  0  0
   25.9366  -21.2297  -11.1449 C   0  0  0  0  0  0  0  0  0  0  0  0
   26.1684  -22.4239  -10.8501 O   0  0  0  0  0  0  0  0  0  0  0  0
   26.5067  -20.7382  -12.3471 N   0  0  0  0  0  0  0  0  0  0  0  0
   27.3655  -21.5592  -13.1851 C   0  0  0  0  0  0  0  0  0  0  0  0
   27.7080  -20.8746  -14.4465 C   0  0  0  0  0  0  0  0  0  0  0  0
   27.2071  -19.7537  -14.6958 O   0  0  0  0  0  0  0  0  0  0  0  0
   28.5769  -21.4258  -15.3883 O   0  0  0  0  0  0  0  0  0  0  0  0
  2  1  1  6
  3  2  1  0
  4  3  1  0
  5  4  1  0
  6  5  2  0
  7  8  2  0
  7  2  1  0
  9  5  1  0
 10 11  1  0
 11 12  1  0
 12 13  1  0
 14 13  1  1
 14 15  1  0
 15  7  1  0
 16 18  1  0
 16 14  1  0
 17 16  2  0
 19 20  1  0
 19 18  1  0
 20 22  1  0
 21 20  2  0
M  END
$$$$
