EMG.pdb
     RDKit          3D

 22 21  0  0  1  0  0  0  0  0999 V2000
   20.2939  -12.0773  -17.0064 N   0  0  0  0  0  0  0  0  0  0  0  0
   19.6900  -10.7610  -16.9338 C   0  0  1  0  0  0  0  0  0  0  0  0
   18.9184  -10.6744  -15.6327 C   0  0  0  0  0  0  0  0  0  0  0  0
   17.6085  -11.4151  -15.8745 C   0  0  0  0  0  0  0  0  0  0  0  0
   16.7205  -11.3526  -14.7050 C   0  0  0  0  0  0  0  0  0  0  0  0
   16.1889  -12.3793  -14.2363 O   0  0  0  0  0  0  0  0  0  0  0  0
   20.7354   -9.7488  -17.0745 C   0  0  0  0  0  0  0  0  0  0  0  0
   21.9555  -10.0340  -16.8750 O   0  0  0  0  0  0  0  0  0  0  0  0
   16.4690  -10.1342  -14.1125 O   0  0  0  0  0  0  0  0  0  0  0  0
   23.3248   -3.5946  -21.0564 C   0  0  0  0  0  0  0  0  0  0  0  0
   22.0104   -4.7929  -20.7263 S   0  0  0  0  0  0  0  0  0  0  0  0
   22.1991   -5.5813  -19.1202 C   0  0  0  0  0  0  0  0  0  0  0  0
   21.1862   -6.6785  -18.8990 C   0  0  0  0  0  0  0  0  0  0  0  0
   21.4132   -7.3667  -17.5668 C   0  0  2  0  0  0  0  0  0  0  0  0
   20.4027   -8.4073  -17.4426 N   0  0  0  0  0  0  0  0  0  0  0  0
   21.3183   -6.4000  -16.4421 C   0  0  0  0  0  0  0  0  0  0  0  0
   20.2788   -5.7230  -16.2748 O   0  0  0  0  0  0  0  0  0  0  0  0
   22.3767   -6.1979  -15.5197 N   0  0  0  0  0  0  0  0  0  0  0  0
   22.2978   -5.2044  -14.4612 C   0  0  0  0  0  0  0  0  0  0  0  0
   22.0946   -5.8322  -13.1416 C   0  0  0  0  0  0  0  0  0  0  0  0
   21.7437   -7.0332  -13.0771 O   0  0  0  0  0  0  0  0  0  0  0  0
   22.2779   -5.1402  -11.9443 O   0  0  0  0  0  0  0  0  0  0  0  0
  2  1  1  1
  3  2  1  0
  4  3  1  0
  5  4  1  0
  6  5  2  0
  7  8  2  0
  7  2  1  0
  9  5  1  0
 10 11  1  0
 11 12  1  0
 12 13  1  0
 14 13  1  6
 14 15  1  0
 15  7  1  0
 16 18  1  0
 16 14  1  0
 17 16  2  0
 19 20  1  0
 19 18  1  0
 20 22  1  0
 21 20  2  0
M  END
$$$$
