EMG.pdb
     RDKit          3D

 22 21  0  0  1  0  0  0  0  0999 V2000
   18.6715  -10.3970  -17.4452 N   0  0  0  0  0  0  0  0  0  0  0  0
   18.8330  -10.5603  -16.0135 C   0  0  1  0  0  0  0  0  0  0  0  0
   18.6180  -12.0237  -15.6851 C   0  0  0  0  0  0  0  0  0  0  0  0
   17.1497  -12.3062  -15.9806 C   0  0  0  0  0  0  0  0  0  0  0  0
   16.9706  -12.9675  -17.2808 C   0  0  0  0  0  0  0  0  0  0  0  0
   15.8430  -13.3201  -17.6814 O   0  0  0  0  0  0  0  0  0  0  0  0
   20.1447  -10.0483  -15.6205 C   0  0  0  0  0  0  0  0  0  0  0  0
   20.5115  -10.0479  -14.4059 O   0  0  0  0  0  0  0  0  0  0  0  0
   18.0712  -13.2035  -18.0756 O   0  0  0  0  0  0  0  0  0  0  0  0
   26.7954  -10.4835  -14.7182 C   0  0  0  0  0  0  0  0  0  0  0  0
   25.0635  -10.5654  -15.2343 S   0  0  0  0  0  0  0  0  0  0  0  0
   24.7723   -9.6825  -16.7746 C   0  0  0  0  0  0  0  0  0  0  0  0
   23.3399   -9.7962  -17.2371 C   0  0  0  0  0  0  0  0  0  0  0  0
   22.3992   -9.1111  -16.2646 C   0  0  2  0  0  0  0  0  0  0  0  0
   21.0479   -9.5341  -16.6030 N   0  0  0  0  0  0  0  0  0  0  0  0
   22.5273   -7.6329  -16.3475 C   0  0  0  0  0  0  0  0  0  0  0  0
   22.9976   -7.0946  -17.3751 O   0  0  0  0  0  0  0  0  0  0  0  0
   22.1325   -6.7735  -15.2905 N   0  0  0  0  0  0  0  0  0  0  0  0
   22.2850   -5.3299  -15.3727 C   0  0  0  0  0  0  0  0  0  0  0  0
   21.8632   -4.6676  -14.1236 C   0  0  0  0  0  0  0  0  0  0  0  0
   22.0325   -3.4332  -13.9921 O   0  0  0  0  0  0  0  0  0  0  0  0
   21.2755   -5.3626  -13.0663 O   0  0  0  0  0  0  0  0  0  0  0  0
  2  1  1  6
  3  2  1  0
  4  3  1  0
  5  4  1  0
  6  5  2  0
  7  8  2  0
  7  2  1  0
  9  5  1  0
 10 11  1  0
 11 12  1  0
 12 13  1  0
 14 13  1  6
 14 15  1  0
 15  7  1  0
 16 18  1  0
 16 14  1  0
 17 16  2  0
 19 20  1  0
 19 18  1  0
 20 22  1  0
 21 20  2  0
M  END
$$$$
