EMG.pdb
     RDKit          3D

 22 21  0  0  1  0  0  0  0  0999 V2000
   22.1783  -13.5208  -17.0972 N   0  0  0  0  0  0  0  0  0  0  0  0
   22.4688  -12.2301  -17.6908 C   0  0  1  0  0  0  0  0  0  0  0  0
   21.2548  -11.8017  -18.4897 C   0  0  0  0  0  0  0  0  0  0  0  0
   21.0181  -12.9059  -19.5133 C   0  0  0  0  0  0  0  0  0  0  0  0
   19.8540  -12.6226  -20.3646 C   0  0  0  0  0  0  0  0  0  0  0  0
   18.7200  -13.0595  -20.0825 O   0  0  0  0  0  0  0  0  0  0  0  0
   22.8467  -11.2937  -16.6337 C   0  0  0  0  0  0  0  0  0  0  0  0
   22.2546  -11.2977  -15.5116 O   0  0  0  0  0  0  0  0  0  0  0  0
   20.0173  -11.8578  -21.4991 O   0  0  0  0  0  0  0  0  0  0  0  0
   28.1392  -13.0058  -15.1087 C   0  0  0  0  0  0  0  0  0  0  0  0
   27.4935  -11.5667  -15.9944 S   0  0  0  0  0  0  0  0  0  0  0  0
   26.2658  -10.6718  -15.0305 C   0  0  0  0  0  0  0  0  0  0  0  0
   25.7974   -9.4161  -15.7252 C   0  0  0  0  0  0  0  0  0  0  0  0
   24.2845   -9.3823  -15.8241 C   0  0  2  0  0  0  0  0  0  0  0  0
   23.8985  -10.3474  -16.8434 N   0  0  0  0  0  0  0  0  0  0  0  0
   23.8014   -8.0212  -16.1741 C   0  0  0  0  0  0  0  0  0  0  0  0
   23.9192   -7.5884  -17.3427 O   0  0  0  0  0  0  0  0  0  0  0  0
   23.1951   -7.1603  -15.2239 N   0  0  0  0  0  0  0  0  0  0  0  0
   22.7941   -5.8034  -15.5584 C   0  0  0  0  0  0  0  0  0  0  0  0
   22.2846   -5.0812  -14.3769 C   0  0  0  0  0  0  0  0  0  0  0  0
   22.0029   -3.8641  -14.4718 O   0  0  0  0  0  0  0  0  0  0  0  0
   22.0989   -5.7001  -13.1406 O   0  0  0  0  0  0  0  0  0  0  0  0
  2  1  1  1
  3  2  1  0
  4  3  1  0
  5  4  1  0
  6  5  2  0
  7  8  2  0
  7  2  1  0
  9  5  1  0
 10 11  1  0
 11 12  1  0
 12 13  1  0
 14 13  1  6
 14 15  1  0
 15  7  1  0
 16 18  1  0
 16 14  1  0
 17 16  2  0
 19 20  1  0
 19 18  1  0
 20 22  1  0
 21 20  2  0
M  END
$$$$
