EMG.pdb
     RDKit          3D

 22 21  0  0  1  0  0  0  0  0999 V2000
   23.2701  -11.9774  -18.9942 N   0  0  0  0  0  0  0  0  0  0  0  0
   22.1717  -11.8673  -18.0539 C   0  0  1  0  0  0  0  0  0  0  0  0
   21.8658  -13.2562  -17.5314 C   0  0  0  0  0  0  0  0  0  0  0  0
   21.3493  -14.0474  -18.7273 C   0  0  0  0  0  0  0  0  0  0  0  0
   21.0309  -15.4366  -18.3682 C   0  0  0  0  0  0  0  0  0  0  0  0
   20.5515  -16.2306  -19.2024 O   0  0  0  0  0  0  0  0  0  0  0  0
   22.5301  -10.9052  -17.0132 C   0  0  0  0  0  0  0  0  0  0  0  0
   21.7590  -10.6850  -16.0300 O   0  0  0  0  0  0  0  0  0  0  0  0
   21.2666  -15.8726  -17.0824 O   0  0  0  0  0  0  0  0  0  0  0  0
   28.1780  -12.7990  -15.1899 C   0  0  0  0  0  0  0  0  0  0  0  0
   27.6057  -11.3074  -16.0385 S   0  0  0  0  0  0  0  0  0  0  0  0
   26.1152  -10.6316  -15.2909 C   0  0  0  0  0  0  0  0  0  0  0  0
   25.6871   -9.3369  -15.9384 C   0  0  0  0  0  0  0  0  0  0  0  0
   24.1762   -9.2551  -16.0419 C   0  0  2  0  0  0  0  0  0  0  0  0
   23.7653  -10.1874  -17.0817 N   0  0  0  0  0  0  0  0  0  0  0  0
   23.7361   -7.8732  -16.3661 C   0  0  0  0  0  0  0  0  0  0  0  0
   24.0214   -7.3606  -17.4719 O   0  0  0  0  0  0  0  0  0  0  0  0
   22.9865   -7.0801  -15.4601 N   0  0  0  0  0  0  0  0  0  0  0  0
   22.6085   -5.7098  -15.7654 C   0  0  0  0  0  0  0  0  0  0  0  0
   21.7297   -5.1443  -14.7238 C   0  0  0  0  0  0  0  0  0  0  0  0
   21.3576   -3.9512  -14.8114 O   0  0  0  0  0  0  0  0  0  0  0  0
   21.2870   -5.8879  -13.6296 O   0  0  0  0  0  0  0  0  0  0  0  0
  2  1  1  6
  3  2  1  0
  4  3  1  0
  5  4  1  0
  6  5  2  0
  7  8  2  0
  7  2  1  0
  9  5  1  0
 10 11  1  0
 11 12  1  0
 12 13  1  0
 14 13  1  6
 14 15  1  0
 15  7  1  0
 16 18  1  0
 16 14  1  0
 17 16  2  0
 19 20  1  0
 19 18  1  0
 20 22  1  0
 21 20  2  0
M  END
$$$$
