EMG.pdb
     RDKit          3D

 22 21  0  0  1  0  0  0  0  0999 V2000
   27.9608  -21.1846  -14.1087 N   0  0  0  0  0  0  0  0  0  0  0  0
   27.4638  -20.1705  -13.1991 C   0  0  1  0  0  0  0  0  0  0  0  0
   26.7760  -19.1022  -14.0245 C   0  0  0  0  0  0  0  0  0  0  0  0
   27.8913  -18.3241  -14.7126 C   0  0  0  0  0  0  0  0  0  0  0  0
   27.7341  -18.3191  -16.1739 C   0  0  0  0  0  0  0  0  0  0  0  0
   26.6348  -18.0714  -16.7090 O   0  0  0  0  0  0  0  0  0  0  0  0
   26.5987  -20.8043  -12.2056 C   0  0  0  0  0  0  0  0  0  0  0  0
   25.9346  -21.8486  -12.4851 O   0  0  0  0  0  0  0  0  0  0  0  0
   28.8238  -18.5938  -16.9713 O   0  0  0  0  0  0  0  0  0  0  0  0
   29.0449  -20.5901   -5.8236 C   0  0  0  0  0  0  0  0  0  0  0  0
   27.4980  -19.9163   -6.4761 S   0  0  0  0  0  0  0  0  0  0  0  0
   27.0435  -20.6622   -8.0490 C   0  0  0  0  0  0  0  0  0  0  0  0
   25.7703  -20.0785   -8.6121 C   0  0  0  0  0  0  0  0  0  0  0  0
   25.4448  -20.6870   -9.9626 C   0  0  2  0  0  0  0  0  0  0  0  0
   26.4822  -20.2572  -10.8892 N   0  0  0  0  0  0  0  0  0  0  0  0
   24.1028  -20.2567  -10.4340 C   0  0  0  0  0  0  0  0  0  0  0  0
   23.9799  -19.2377  -11.1505 O   0  0  0  0  0  0  0  0  0  0  0  0
   22.9172  -20.9619  -10.1042 N   0  0  0  0  0  0  0  0  0  0  0  0
   21.6034  -20.4979  -10.5195 C   0  0  0  0  0  0  0  0  0  0  0  0
   21.2566  -20.9862  -11.8679 C   0  0  0  0  0  0  0  0  0  0  0  0
   22.0908  -20.8789  -12.7965 O   0  0  0  0  0  0  0  0  0  0  0  0
   20.0244  -21.5709  -12.1612 O   0  0  0  0  0  0  0  0  0  0  0  0
  2  1  1  6
  3  2  1  0
  4  3  1  0
  5  4  1  0
  6  5  2  0
  7  8  2  0
  7  2  1  0
  9  5  1  0
 10 11  1  0
 11 12  1  0
 12 13  1  0
 14 13  1  1
 14 15  1  0
 15  7  1  0
 16 18  1  0
 16 14  1  0
 17 16  2  0
 19 20  1  0
 19 18  1  0
 20 22  1  0
 21 20  2  0
M  END
$$$$
