EMG.pdb
     RDKit          3D

 22 21  0  0  1  0  0  0  0  0999 V2000
   26.5390  -18.6782  -14.4098 N   0  0  0  0  0  0  0  0  0  0  0  0
   26.6772  -20.0812  -14.7493 C   0  0  1  0  0  0  0  0  0  0  0  0
   28.1002  -20.3085  -15.2173 C   0  0  0  0  0  0  0  0  0  0  0  0
   28.0727  -20.1420  -16.7321 C   0  0  0  0  0  0  0  0  0  0  0  0
   28.2687  -18.7415  -17.1324 C   0  0  0  0  0  0  0  0  0  0  0  0
   29.4097  -18.2690  -17.3087 O   0  0  0  0  0  0  0  0  0  0  0  0
   26.2939  -20.8909  -13.5940 C   0  0  0  0  0  0  0  0  0  0  0  0
   26.2968  -22.1583  -13.6515 O   0  0  0  0  0  0  0  0  0  0  0  0
   27.1692  -17.9319  -17.3173 O   0  0  0  0  0  0  0  0  0  0  0  0
   30.3062  -21.1911   -8.7851 C   0  0  0  0  0  0  0  0  0  0  0  0
   28.6370  -20.4946   -8.7518 S   0  0  0  0  0  0  0  0  0  0  0  0
   27.5969  -21.1633  -10.0587 C   0  0  0  0  0  0  0  0  0  0  0  0
   26.1950  -20.6051  -10.0161 C   0  0  0  0  0  0  0  0  0  0  0  0
   25.4024  -21.0340  -11.2359 C   0  0  2  0  0  0  0  0  0  0  0  0
   25.9053  -20.2675  -12.3668 N   0  0  0  0  0  0  0  0  0  0  0  0
   23.9485  -20.7962  -11.0401 C   0  0  0  0  0  0  0  0  0  0  0  0
   23.3633  -21.2474  -10.0298 O   0  0  0  0  0  0  0  0  0  0  0  0
   23.1651  -20.0620  -11.9669 N   0  0  0  0  0  0  0  0  0  0  0  0
   21.7679  -19.7473  -11.7165 C   0  0  0  0  0  0  0  0  0  0  0  0
   20.8695  -20.7558  -12.3105 C   0  0  0  0  0  0  0  0  0  0  0  0
   21.3571  -21.7142  -12.9534 O   0  0  0  0  0  0  0  0  0  0  0  0
   19.4815  -20.6907  -12.1873 O   0  0  0  0  0  0  0  0  0  0  0  0
  2  1  1  1
  3  2  1  0
  4  3  1  0
  5  4  1  0
  6  5  2  0
  7  8  2  0
  7  2  1  0
  9  5  1  0
 10 11  1  0
 11 12  1  0
 12 13  1  0
 14 13  1  1
 14 15  1  0
 15  7  1  0
 16 18  1  0
 16 14  1  0
 17 16  2  0
 19 20  1  0
 19 18  1  0
 20 22  1  0
 21 20  2  0
M  END
$$$$
