EMG.pdb
     RDKit          3D

 22 21  0  0  1  0  0  0  0  0999 V2000
   23.7973   -8.6397  -19.2724 N   0  0  0  0  0  0  0  0  0  0  0  0
   22.3479   -8.6795  -19.2928 C   0  0  1  0  0  0  0  0  0  0  0  0
   21.9274  -10.0097  -19.8838 C   0  0  0  0  0  0  0  0  0  0  0  0
   23.0782  -10.9706  -19.6092 C   0  0  0  0  0  0  0  0  0  0  0  0
   22.8092  -12.3133  -20.1430 C   0  0  0  0  0  0  0  0  0  0  0  0
   22.6321  -12.5049  -21.3629 O   0  0  0  0  0  0  0  0  0  0  0  0
   21.8457   -8.4434  -17.9403 C   0  0  0  0  0  0  0  0  0  0  0  0
   20.6018   -8.4579  -17.6908 O   0  0  0  0  0  0  0  0  0  0  0  0
   22.7511  -13.3845  -19.2782 O   0  0  0  0  0  0  0  0  0  0  0  0
   22.1630  -13.2567  -14.2195 C   0  0  0  0  0  0  0  0  0  0  0  0
   22.8829  -11.6419  -13.8365 S   0  0  0  0  0  0  0  0  0  0  0  0
   22.2270  -10.3397  -14.8905 C   0  0  0  0  0  0  0  0  0  0  0  0
   22.8716   -9.0026  -14.6161 C   0  0  0  0  0  0  0  0  0  0  0  0
   22.2875   -7.9247  -15.5089 C   0  0  2  0  0  0  0  0  0  0  0  0
   22.7517   -8.1896  -16.8630 N   0  0  0  0  0  0  0  0  0  0  0  0
   22.7087   -6.5720  -15.0603 C   0  0  0  0  0  0  0  0  0  0  0  0
   23.9078   -6.2223  -15.1424 O   0  0  0  0  0  0  0  0  0  0  0  0
   21.7948   -5.6272  -14.5275 N   0  0  0  0  0  0  0  0  0  0  0  0
   22.1910   -4.2642  -14.2125 C   0  0  0  0  0  0  0  0  0  0  0  0
   21.0455   -3.4605  -13.7446 C   0  0  0  0  0  0  0  0  0  0  0  0
   19.9000   -3.9678  -13.7315 O   0  0  0  0  0  0  0  0  0  0  0  0
   21.1809   -2.1421  -13.3092 O   0  0  0  0  0  0  0  0  0  0  0  0
  2  1  1  1
  3  2  1  0
  4  3  1  0
  5  4  1  0
  6  5  2  0
  7  8  2  0
  7  2  1  0
  9  5  1  0
 10 11  1  0
 11 12  1  0
 12 13  1  0
 14 13  1  1
 14 15  1  0
 15  7  1  0
 16 18  1  0
 16 14  1  0
 17 16  2  0
 19 20  1  0
 19 18  1  0
 20 22  1  0
 21 20  2  0
M  END
$$$$
