ERS.pdb
     RDKit          3D

 27 26  0  0  1  0  0  0  0  0999 V2000
    8.2853  -19.3637   10.6533 N   0  0  0  0  0  0  0  0  0  0  0  0
    7.4578  -20.5607   10.7327 C   0  0  1  0  0  0  0  0  0  0  0  0
    7.1867  -21.0214    9.3419 C   0  0  0  0  0  0  0  0  0  0  0  0
    8.2695  -21.8304    8.7058 C   0  0  0  0  0  0  0  0  0  0  0  0
    7.9964  -22.2500    7.3179 C   0  0  0  0  0  0  0  0  0  0  0  0
    7.6243  -21.4335    6.4450 O   0  0  0  0  0  0  0  0  0  0  0  0
    8.1354  -21.5988   11.5776 C   0  0  0  0  0  0  0  0  0  0  0  0
    7.5387  -22.6512   11.9048 O   0  0  0  0  0  0  0  0  0  0  0  0
    8.1692  -23.5958    7.0151 O   0  0  0  0  0  0  0  0  0  0  0  0
   16.2191  -23.4588   11.2723 N   0  0  0  0  0  0  0  0  0  0  0  0
   15.9406  -24.2142   12.4388 C   0  0  0  0  0  0  0  0  0  0  0  0
   16.7652  -25.1063   12.8957 N   0  0  0  0  0  0  0  0  0  0  0  0
   14.7144  -23.9745   13.1169 N   0  0  0  0  0  0  0  0  0  0  0  0
   13.6892  -23.1220   12.5919 C   0  0  0  0  0  0  0  0  0  0  0  0
   12.5156  -22.9819   13.5665 C   0  0  0  0  0  0  0  0  0  0  0  0
   11.5725  -21.9916   12.9834 C   0  0  0  0  0  0  0  0  0  0  0  0
   10.1540  -22.4986   12.7934 C   0  0  2  0  0  0  0  0  0  0  0  0
    9.4654  -21.4363   12.0366 N   0  0  0  0  0  0  0  0  0  0  0  0
    9.4878  -22.7413   14.0755 C   0  0  0  0  0  0  0  0  0  0  0  0
    9.3245  -21.8376   14.9310 O   0  0  0  0  0  0  0  0  0  0  0  0
   16.5100  -25.6623   13.7352 O   0  0  0  0  0  0  0  0  0  0  0  0
    8.1177  -26.6095   15.1946 C   0  0  0  0  0  0  0  0  0  0  0  0
    7.3996  -25.5027   15.6227 C   0  0  1  0  0  0  0  0  0  0  0  0
    8.2453  -24.2446   15.6703 N   0  0  0  0  0  0  0  0  0  0  0  0
    8.9695  -24.0289   14.4542 C   0  0  0  0  0  0  0  0  0  0  0  0
    9.2093  -24.3476   16.7915 O   0  0  0  0  0  0  0  0  0  0  0  0
   10.4349  -24.3772   16.4954 O   0  0  0  0  0  0  0  0  0  0  0  0
  2  7  1  0
  2  1  1  6
  3  2  1  0
  4  3  1  0
  5  4  1  0
  5  6  2  0
  7  8  2  0
  9  5  1  0
 10 11  1  0
 11 12  2  0
 11 13  1  0
 13 14  1  0
 14 15  1  0
 17 16  1  1
 16 15  1  0
 18 17  1  0
 18  7  1  0
 19 17  1  0
 20 19  2  0
 21 22  1  0
 23 22  1  6
 23 25  1  0
 23 24  1  0
 24 19  1  0
 25 27  1  0
 26 25  2  0
M  END
$$$$
