ERS.pdb
     RDKit          3D

 27 26  0  0  1  0  0  0  0  0999 V2000
   13.9016  -17.4780   18.2394 N   0  0  0  0  0  0  0  0  0  0  0  0
   14.7867  -17.1385   19.3462 C   0  0  1  0  0  0  0  0  0  0  0  0
   15.7178  -16.0743   18.8764 C   0  0  0  0  0  0  0  0  0  0  0  0
   15.0714  -14.8263   18.3703 C   0  0  0  0  0  0  0  0  0  0  0  0
   16.0081  -13.7979   17.8788 C   0  0  0  0  0  0  0  0  0  0  0  0
   16.6884  -13.9695   16.8420 O   0  0  0  0  0  0  0  0  0  0  0  0
   13.9796  -16.7310   20.5434 C   0  0  0  0  0  0  0  0  0  0  0  0
   14.5404  -16.3559   21.5996 O   0  0  0  0  0  0  0  0  0  0  0  0
   16.1069  -12.6235   18.6161 O   0  0  0  0  0  0  0  0  0  0  0  0
    7.1665  -12.3165   19.7319 N   0  0  0  0  0  0  0  0  0  0  0  0
    7.5583  -13.5862   19.2385 C   0  0  0  0  0  0  0  0  0  0  0  0
    7.2607  -13.9813   18.0386 N   0  0  0  0  0  0  0  0  0  0  0  0
    8.2997  -14.4410   20.0989 N   0  0  0  0  0  0  0  0  0  0  0  0
    8.7449  -14.0385   21.4002 C   0  0  0  0  0  0  0  0  0  0  0  0
    9.5542  -15.1425   22.0880 C   0  0  0  0  0  0  0  0  0  0  0  0
   10.5279  -15.6625   21.0924 C   0  0  0  0  0  0  0  0  0  0  0  0
   11.7768  -16.2866   21.6891 C   0  0  2  0  0  0  0  0  0  0  0  0
   12.5634  -16.7520   20.5316 N   0  0  0  0  0  0  0  0  0  0  0  0
   11.4529  -17.4020   22.5821 C   0  0  0  0  0  0  0  0  0  0  0  0
   11.2222  -18.5599   22.1565 O   0  0  0  0  0  0  0  0  0  0  0  0
    7.6233  -14.8903   17.6904 O   0  0  0  0  0  0  0  0  0  0  0  0
   12.8202  -17.7567   26.4460 C   0  0  0  0  0  0  0  0  0  0  0  0
   11.4760  -18.0749   26.3198 C   0  0  2  0  0  0  0  0  0  0  0  0
   11.0782  -18.3562   24.8835 N   0  0  0  0  0  0  0  0  0  0  0  0
   11.3743  -17.2598   24.0116 C   0  0  0  0  0  0  0  0  0  0  0  0
    9.6237  -18.6357   24.8265 O   0  0  0  0  0  0  0  0  0  0  0  0
    8.9045  -17.8148   24.1943 O   0  0  0  0  0  0  0  0  0  0  0  0
  2  7  1  0
  2  1  1  6
  3  2  1  0
  4  3  1  0
  5  4  1  0
  5  6  2  0
  7  8  2  0
  9  5  1  0
 10 11  1  0
 11 12  2  0
 11 13  1  0
 13 14  1  0
 14 15  1  0
 17 16  1  6
 16 15  1  0
 18 17  1  0
 18  7  1  0
 19 17  1  0
 20 19  2  0
 21 22  1  0
 23 22  1  6
 23 25  1  0
 23 24  1  0
 24 19  1  0
 25 27  1  0
 26 25  2  0
M  END
$$$$
