ERS.pdb
     RDKit          3D

 27 26  0  0  1  0  0  0  0  0999 V2000
   14.8247  -17.4022   16.5256 N   0  0  0  0  0  0  0  0  0  0  0  0
   14.0528  -18.2254   17.4477 C   0  0  1  0  0  0  0  0  0  0  0  0
   14.9066  -19.3760   17.8568 C   0  0  0  0  0  0  0  0  0  0  0  0
   16.3720  -19.2115   17.6176 C   0  0  0  0  0  0  0  0  0  0  0  0
   17.2071  -20.3326   18.0892 C   0  0  0  0  0  0  0  0  0  0  0  0
   17.0464  -20.8418   19.2215 O   0  0  0  0  0  0  0  0  0  0  0  0
   13.5832  -17.3967   18.6068 C   0  0  0  0  0  0  0  0  0  0  0  0
   14.2585  -16.4239   19.0171 O   0  0  0  0  0  0  0  0  0  0  0  0
   18.1859  -20.8047   17.2220 O   0  0  0  0  0  0  0  0  0  0  0  0
    8.3874  -12.7781   18.5755 N   0  0  0  0  0  0  0  0  0  0  0  0
    8.1139  -12.8002   19.9661 C   0  0  0  0  0  0  0  0  0  0  0  0
    8.2067  -11.7365   20.7040 N   0  0  0  0  0  0  0  0  0  0  0  0
    7.7276  -14.0351   20.5547 N   0  0  0  0  0  0  0  0  0  0  0  0
    8.3099  -15.2903   20.1816 C   0  0  0  0  0  0  0  0  0  0  0  0
    9.7328  -15.4391   20.7292 C   0  0  0  0  0  0  0  0  0  0  0  0
   10.4223  -16.4599   19.8970 C   0  0  0  0  0  0  0  0  0  0  0  0
   11.8443  -16.7759   20.3252 C   0  0  2  0  0  0  0  0  0  0  0  0
   12.3686  -17.6748   19.2801 N   0  0  0  0  0  0  0  0  0  0  0  0
   11.8846  -17.4235   21.6387 C   0  0  0  0  0  0  0  0  0  0  0  0
   11.3171  -18.5195   21.8666 O   0  0  0  0  0  0  0  0  0  0  0  0
    7.9680  -11.7871   21.7136 O   0  0  0  0  0  0  0  0  0  0  0  0
   13.9405  -15.6085   24.7722 C   0  0  0  0  0  0  0  0  0  0  0  0
   13.8036  -16.9844   24.8830 C   0  0  1  0  0  0  0  0  0  0  0  0
   12.6730  -17.5261   24.0294 N   0  0  0  0  0  0  0  0  0  0  0  0
   12.5753  -16.8578   22.7669 C   0  0  0  0  0  0  0  0  0  0  0  0
   11.3923  -17.3656   24.7580 O   0  0  0  0  0  0  0  0  0  0  0  0
   10.4769  -16.7209   24.1772 O   0  0  0  0  0  0  0  0  0  0  0  0
  2  7  1  0
  2  1  1  6
  3  2  1  0
  4  3  1  0
  5  4  1  0
  5  6  2  0
  7  8  2  0
  9  5  1  0
 10 11  1  0
 11 12  2  0
 11 13  1  0
 13 14  1  0
 14 15  1  0
 17 16  1  6
 16 15  1  0
 18 17  1  0
 18  7  1  0
 19 17  1  0
 20 19  2  0
 21 22  1  0
 23 22  1  6
 23 25  1  0
 23 24  1  0
 24 19  1  0
 25 27  1  0
 26 25  2  0
M  END
$$$$
