ERS.pdb
     RDKit          3D

 27 26  0  0  1  0  0  0  0  0999 V2000
   12.5181  -14.8640   17.3885 N   0  0  0  0  0  0  0  0  0  0  0  0
   13.1057  -15.4345   18.5940 C   0  0  1  0  0  0  0  0  0  0  0  0
   14.5774  -15.2094   18.5350 C   0  0  0  0  0  0  0  0  0  0  0  0
   15.1508  -15.0335   17.1668 C   0  0  0  0  0  0  0  0  0  0  0  0
   16.6148  -14.8562   17.1259 C   0  0  0  0  0  0  0  0  0  0  0  0
   17.3303  -15.4788   16.3088 O   0  0  0  0  0  0  0  0  0  0  0  0
   12.4647  -14.8358   19.8111 C   0  0  0  0  0  0  0  0  0  0  0  0
   12.9952  -13.8698   20.4079 O   0  0  0  0  0  0  0  0  0  0  0  0
   17.1729  -13.9653   18.0356 O   0  0  0  0  0  0  0  0  0  0  0  0
    8.3070  -12.8866   16.8975 N   0  0  0  0  0  0  0  0  0  0  0  0
    7.6785  -14.0555   17.3953 C   0  0  0  0  0  0  0  0  0  0  0  0
    7.5282  -15.1202   16.6684 N   0  0  0  0  0  0  0  0  0  0  0  0
    7.2034  -14.0434   18.7350 N   0  0  0  0  0  0  0  0  0  0  0  0
    7.6266  -13.0739   19.7016 C   0  0  0  0  0  0  0  0  0  0  0  0
    9.1039  -13.2474   20.0679 C   0  0  0  0  0  0  0  0  0  0  0  0
    9.1897  -14.3700   21.0387 C   0  0  0  0  0  0  0  0  0  0  0  0
   10.5964  -14.7062   21.5008 C   0  0  2  0  0  0  0  0  0  0  0  0
   11.2445  -15.3311   20.3326 N   0  0  0  0  0  0  0  0  0  0  0  0
   10.5880  -15.6216   22.6445 C   0  0  0  0  0  0  0  0  0  0  0  0
    9.9821  -15.3596   23.7120 O   0  0  0  0  0  0  0  0  0  0  0  0
    7.0515  -15.9529   17.0662 O   0  0  0  0  0  0  0  0  0  0  0  0
   10.7257  -19.5532   22.1565 C   0  0  0  0  0  0  0  0  0  0  0  0
   11.4311  -19.2385   23.3087 C   0  0  2  0  0  0  0  0  0  0  0  0
   11.2269  -17.7987   23.7396 N   0  0  0  0  0  0  0  0  0  0  0  0
   11.2698  -16.8884   22.6353 C   0  0  0  0  0  0  0  0  0  0  0  0
   12.2833  -17.4261   24.7103 O   0  0  0  0  0  0  0  0  0  0  0  0
   13.0018  -16.4298   24.4242 O   0  0  0  0  0  0  0  0  0  0  0  0
  2  7  1  0
  2  1  1  6
  3  2  1  0
  4  3  1  0
  5  4  1  0
  5  6  2  0
  7  8  2  0
  9  5  1  0
 10 11  1  0
 11 12  2  0
 11 13  1  0
 13 14  1  0
 14 15  1  0
 17 16  1  6
 16 15  1  0
 18 17  1  0
 18  7  1  0
 19 17  1  0
 20 19  2  0
 21 22  1  0
 23 22  1  6
 23 25  1  0
 23 24  1  0
 24 19  1  0
 25 27  1  0
 26 25  2  0
M  END
$$$$
