ERS.pdb
     RDKit          3D

 27 26  0  0  1  0  0  0  0  0999 V2000
   12.3359  -17.3285   15.8242 N   0  0  0  0  0  0  0  0  0  0  0  0
   12.6533  -18.1715   16.9698 C   0  0  1  0  0  0  0  0  0  0  0  0
   14.0714  -18.6085   16.8361 C   0  0  0  0  0  0  0  0  0  0  0  0
   14.7195  -18.3100   15.5237 C   0  0  0  0  0  0  0  0  0  0  0  0
   16.1255  -18.7431   15.4134 C   0  0  0  0  0  0  0  0  0  0  0  0
   17.0445  -17.9342   15.1522 O   0  0  0  0  0  0  0  0  0  0  0  0
   12.3814  -17.4294   18.2450 C   0  0  0  0  0  0  0  0  0  0  0  0
   12.9051  -16.3118   18.4628 O   0  0  0  0  0  0  0  0  0  0  0  0
   16.3921  -20.0931   15.6119 O   0  0  0  0  0  0  0  0  0  0  0  0
    7.7241  -13.1817   18.2239 N   0  0  0  0  0  0  0  0  0  0  0  0
    7.8955  -12.9299   19.6081 C   0  0  0  0  0  0  0  0  0  0  0  0
    7.8553  -11.7297   20.1007 N   0  0  0  0  0  0  0  0  0  0  0  0
    8.1180  -14.0385   20.4696 N   0  0  0  0  0  0  0  0  0  0  0  0
    8.9087  -15.1718   20.0901 C   0  0  0  0  0  0  0  0  0  0  0  0
    9.0321  -16.1841   21.2333 C   0  0  0  0  0  0  0  0  0  0  0  0
    9.7342  -17.3778   20.6929 C   0  0  0  0  0  0  0  0  0  0  0  0
   11.2256  -17.1949   20.4746 C   0  0  2  0  0  0  0  0  0  0  0  0
   11.5294  -17.9543   19.2473 N   0  0  0  0  0  0  0  0  0  0  0  0
   12.0059  -17.6998   21.6071 C   0  0  0  0  0  0  0  0  0  0  0  0
   12.0579  -18.9195   21.8984 O   0  0  0  0  0  0  0  0  0  0  0  0
    8.0467  -11.5803   21.1106 O   0  0  0  0  0  0  0  0  0  0  0  0
   14.6497  -15.2028   23.8108 C   0  0  0  0  0  0  0  0  0  0  0  0
   14.8484  -16.5740   23.7439 C   0  0  1  0  0  0  0  0  0  0  0  0
   13.5521  -17.3405   23.5635 N   0  0  0  0  0  0  0  0  0  0  0  0
   12.7720  -16.8418   22.4713 C   0  0  0  0  0  0  0  0  0  0  0  0
   12.7523  -17.2449   24.8078 O   0  0  0  0  0  0  0  0  0  0  0  0
   11.6077  -16.7230   24.7172 O   0  0  0  0  0  0  0  0  0  0  0  0
  2  7  1  0
  2  1  1  6
  3  2  1  0
  4  3  1  0
  5  4  1  0
  5  6  2  0
  7  8  2  0
  9  5  1  0
 10 11  1  0
 11 12  2  0
 11 13  1  0
 13 14  1  0
 14 15  1  0
 17 16  1  1
 16 15  1  0
 18 17  1  0
 18  7  1  0
 19 17  1  0
 20 19  2  0
 21 22  1  0
 23 22  1  6
 23 25  1  0
 23 24  1  0
 24 19  1  0
 25 27  1  0
 26 25  2  0
M  END
$$$$
