ERS.pdb
     RDKit          3D

 27 26  0  0  1  0  0  0  0  0999 V2000
    8.6972  -13.5490   17.7107 N   0  0  0  0  0  0  0  0  0  0  0  0
    9.6778  -14.1831   18.5825 C   0  0  1  0  0  0  0  0  0  0  0  0
   10.6580  -13.1418   19.0007 C   0  0  0  0  0  0  0  0  0  0  0  0
   11.6913  -13.5839   19.9848 C   0  0  0  0  0  0  0  0  0  0  0  0
   13.0462  -13.7553   19.4268 C   0  0  0  0  0  0  0  0  0  0  0  0
   13.9854  -14.2208   20.1110 O   0  0  0  0  0  0  0  0  0  0  0  0
    8.9867  -14.8427   19.7392 C   0  0  0  0  0  0  0  0  0  0  0  0
    8.0579  -14.2628   20.3489 O   0  0  0  0  0  0  0  0  0  0  0  0
   13.2409  -13.3774   18.1031 O   0  0  0  0  0  0  0  0  0  0  0  0
    5.0913  -19.7579   18.8460 N   0  0  0  0  0  0  0  0  0  0  0  0
    5.9748  -20.2176   17.8375 C   0  0  0  0  0  0  0  0  0  0  0  0
    5.5592  -20.5375   16.6503 N   0  0  0  0  0  0  0  0  0  0  0  0
    7.3564  -20.3260   18.1539 N   0  0  0  0  0  0  0  0  0  0  0  0
    7.8890  -19.9838   19.4395 C   0  0  0  0  0  0  0  0  0  0  0  0
    7.9740  -18.4663   19.6312 C   0  0  0  0  0  0  0  0  0  0  0  0
    8.5396  -18.2226   20.9842 C   0  0  0  0  0  0  0  0  0  0  0  0
    8.6972  -16.7585   21.3542 C   0  0  2  0  0  0  0  0  0  0  0  0
    9.3501  -16.1362   20.1873 N   0  0  0  0  0  0  0  0  0  0  0  0
    9.5114  -16.5878   22.5602 C   0  0  0  0  0  0  0  0  0  0  0  0
   10.7627  -16.4981   22.5205 O   0  0  0  0  0  0  0  0  0  0  0  0
    6.2328  -20.9042   15.9497 O   0  0  0  0  0  0  0  0  0  0  0  0
    9.7022  -15.7391   27.3870 C   0  0  0  0  0  0  0  0  0  0  0  0
    9.0141  -15.6791   26.1840 C   0  0  1  0  0  0  0  0  0  0  0  0
    9.7452  -16.3892   25.0608 N   0  0  0  0  0  0  0  0  0  0  0  0
    8.9443  -16.5093   23.8801 C   0  0  0  0  0  0  0  0  0  0  0  0
   10.1372  -17.7446   25.5150 O   0  0  0  0  0  0  0  0  0  0  0  0
    9.4753  -18.7173   25.0606 O   0  0  0  0  0  0  0  0  0  0  0  0
  2  7  1  0
  2  1  1  6
  3  2  1  0
  4  3  1  0
  5  4  1  0
  5  6  2  0
  7  8  2  0
  9  5  1  0
 10 11  1  0
 11 12  2  0
 11 13  1  0
 13 14  1  0
 14 15  1  0
 17 16  1  6
 16 15  1  0
 18 17  1  0
 18  7  1  0
 19 17  1  0
 20 19  2  0
 21 22  1  0
 23 22  1  6
 23 25  1  0
 23 24  1  0
 24 19  1  0
 25 27  1  0
 26 25  2  0
M  END
$$$$
