ERS.pdb
     RDKit          3D

 27 26  0  0  1  0  0  0  0  0999 V2000
   12.0526  -17.3421   20.6799 N   0  0  0  0  0  0  0  0  0  0  0  0
   13.0583  -16.9049   21.6397 C   0  0  1  0  0  0  0  0  0  0  0  0
   14.0788  -16.1090   20.9012 C   0  0  0  0  0  0  0  0  0  0  0  0
   13.5411  -15.0618   19.9815 C   0  0  0  0  0  0  0  0  0  0  0  0
   14.5651  -14.2190   19.3351 C   0  0  0  0  0  0  0  0  0  0  0  0
   15.7867  -14.3847   19.5527 O   0  0  0  0  0  0  0  0  0  0  0  0
   12.4069  -16.1412   22.7547 C   0  0  0  0  0  0  0  0  0  0  0  0
   13.0967  -15.5432   23.6133 O   0  0  0  0  0  0  0  0  0  0  0  0
   14.1181  -13.2274   18.4692 O   0  0  0  0  0  0  0  0  0  0  0  0
    9.2384  -14.2822   19.5728 N   0  0  0  0  0  0  0  0  0  0  0  0
    8.0149  -13.5666   19.5756 C   0  0  0  0  0  0  0  0  0  0  0  0
    7.8120  -12.5450   18.8011 N   0  0  0  0  0  0  0  0  0  0  0  0
    6.9888  -13.9947   20.4613 N   0  0  0  0  0  0  0  0  0  0  0  0
    7.2569  -14.5052   21.7732 C   0  0  0  0  0  0  0  0  0  0  0  0
    8.7604  -14.5654   22.0608 C   0  0  0  0  0  0  0  0  0  0  0  0
    8.9246  -15.0551   23.4548 C   0  0  0  0  0  0  0  0  0  0  0  0
   10.3648  -15.2134   23.9086 C   0  0  2  0  0  0  0  0  0  0  0  0
   10.9985  -16.0635   22.8835 N   0  0  0  0  0  0  0  0  0  0  0  0
   10.4519  -15.8379   25.2310 C   0  0  0  0  0  0  0  0  0  0  0  0
   10.6121  -17.0735   25.3827 O   0  0  0  0  0  0  0  0  0  0  0  0
    6.9263  -12.0078   18.8778 O   0  0  0  0  0  0  0  0  0  0  0  0
   11.0176  -13.4593   28.5140 C   0  0  0  0  0  0  0  0  0  0  0  0
   10.4508  -14.6746   28.8688 C   0  0  2  0  0  0  0  0  0  0  0  0
   10.5081  -15.6921   27.7455 N   0  0  0  0  0  0  0  0  0  0  0  0
   10.3617  -15.0882   26.4556 C   0  0  0  0  0  0  0  0  0  0  0  0
    9.4271  -16.6883   27.9348 O   0  0  0  0  0  0  0  0  0  0  0  0
    8.5490  -16.7627   27.0325 O   0  0  0  0  0  0  0  0  0  0  0  0
  2  7  1  0
  2  1  1  6
  3  2  1  0
  4  3  1  0
  5  4  1  0
  5  6  2  0
  7  8  2  0
  9  5  1  0
 10 11  1  0
 11 12  2  0
 11 13  1  0
 13 14  1  0
 14 15  1  0
 17 16  1  6
 16 15  1  0
 18 17  1  0
 18  7  1  0
 19 17  1  0
 20 19  2  0
 21 22  1  0
 23 22  1  6
 23 25  1  0
 23 24  1  0
 24 19  1  0
 25 27  1  0
 26 25  2  0
M  END
$$$$
