ERS.pdb
     RDKit          3D

 27 26  0  0  1  0  0  0  0  0999 V2000
    9.8845  -18.0924   17.2966 N   0  0  0  0  0  0  0  0  0  0  0  0
    9.8734  -19.2085   18.2336 C   0  0  1  0  0  0  0  0  0  0  0  0
   10.9480  -20.1570   17.8267 C   0  0  0  0  0  0  0  0  0  0  0  0
   12.2989  -19.5539   17.6193 C   0  0  0  0  0  0  0  0  0  0  0  0
   13.3309  -20.4936   17.1412 C   0  0  0  0  0  0  0  0  0  0  0  0
   14.0748  -21.1132   17.9349 O   0  0  0  0  0  0  0  0  0  0  0  0
   10.0319  -18.7028   19.6371 C   0  0  0  0  0  0  0  0  0  0  0  0
   10.9111  -17.8556   19.9199 O   0  0  0  0  0  0  0  0  0  0  0  0
   13.4462  -20.6654   15.7665 O   0  0  0  0  0  0  0  0  0  0  0  0
    7.0872  -21.2742   26.6591 N   0  0  0  0  0  0  0  0  0  0  0  0
    6.8592  -19.9604   27.1397 C   0  0  0  0  0  0  0  0  0  0  0  0
    6.8883  -19.6746   28.4055 N   0  0  0  0  0  0  0  0  0  0  0  0
    6.5912  -18.9359   26.1915 N   0  0  0  0  0  0  0  0  0  0  0  0
    6.6921  -19.1399   24.7767 C   0  0  0  0  0  0  0  0  0  0  0  0
    8.0852  -18.7801   24.2509 C   0  0  0  0  0  0  0  0  0  0  0  0
    8.0999  -19.0816   22.7953 C   0  0  0  0  0  0  0  0  0  0  0  0
    9.3597  -18.6472   22.0677 C   0  0  2  0  0  0  0  0  0  0  0  0
    9.2029  -19.1562   20.6923 N   0  0  0  0  0  0  0  0  0  0  0  0
   10.5650  -19.1972   22.6932 C   0  0  0  0  0  0  0  0  0  0  0  0
   10.7565  -20.4316   22.8154 O   0  0  0  0  0  0  0  0  0  0  0  0
    6.5730  -18.7397   28.7302 O   0  0  0  0  0  0  0  0  0  0  0  0
   13.8035  -16.7103   23.5919 C   0  0  0  0  0  0  0  0  0  0  0  0
   14.0410  -18.0690   23.4446 C   0  0  1  0  0  0  0  0  0  0  0  0
   12.8228  -18.9105   23.7736 N   0  0  0  0  0  0  0  0  0  0  0  0
   11.6206  -18.3702   23.2143 C   0  0  0  0  0  0  0  0  0  0  0  0
   12.6720  -18.9949   25.2457 O   0  0  0  0  0  0  0  0  0  0  0  0
   11.6258  -18.4990   25.7461 O   0  0  0  0  0  0  0  0  0  0  0  0
  2  7  1  0
  2  1  1  6
  3  2  1  0
  4  3  1  0
  5  4  1  0
  5  6  2  0
  7  8  2  0
  9  5  1  0
 10 11  1  0
 11 12  2  0
 11 13  1  0
 13 14  1  0
 14 15  1  0
 17 16  1  1
 16 15  1  0
 18 17  1  0
 18  7  1  0
 19 17  1  0
 20 19  2  0
 21 22  1  0
 23 22  1  6
 23 25  1  0
 23 24  1  0
 24 19  1  0
 25 27  1  0
 26 25  2  0
M  END
$$$$
