THI.pdb
     RDKit          3D

 26 26  0  0  1  0  0  0  0  0999 V2000
   46.7889  -10.6197   -4.5008 C   0  0  0  0  0  0  0  0  0  0  0  0
   45.6125  -10.0658   -5.2712 C   0  0  1  0  0  0  0  0  0  0  0  0
   46.0634   -8.9869   -6.0085 O   0  0  0  0  0  0  0  0  0  0  0  0
   44.9560  -11.1309   -6.1131 C   0  0  2  0  0  0  0  0  0  0  0  0
   45.9385  -11.6194   -7.0472 N   0  0  0  0  0  0  0  0  0  0  0  0
   43.7589  -10.6662   -6.8149 C   0  0  0  0  0  0  0  0  0  0  0  0
   43.8231  -10.3706   -8.0351 O   0  0  0  0  0  0  0  0  0  0  0  0
   42.5002  -10.5263   -6.1840 N   0  0  0  0  0  0  0  0  0  0  0  0
   41.2829  -10.1039   -6.9376 C   0  0  1  0  0  0  0  0  0  0  0  0
   40.1102  -10.6605   -6.1777 C   0  0  0  0  0  0  0  0  0  0  0  0
   38.7884  -10.2977   -6.6524 C   0  0  0  0  0  0  0  0  0  0  0  0
   38.5402   -9.4963   -7.7749 C   0  0  0  0  0  0  0  0  0  0  0  0
   37.2088   -9.4104   -7.8557 N   0  0  0  0  0  0  0  0  0  0  0  0
   36.6433  -10.1024   -6.8629 C   0  0  0  0  0  0  0  0  0  0  0  0
   37.6056  -10.6455   -6.1261 N   0  0  0  0  0  0  0  0  0  0  0  0
   41.2912   -8.6494   -6.9881 C   0  0  0  0  0  0  0  0  0  0  0  0
   41.7146   -7.9948   -5.9752 O   0  0  0  0  0  0  0  0  0  0  0  0
   43.6447   -5.6363  -10.5438 C   0  0  0  0  0  0  0  0  0  0  0  0
   42.9643   -6.1184   -9.3106 C   0  0  0  0  0  0  0  0  0  0  0  0
   41.4722   -5.9046   -9.3184 C   0  0  2  0  0  0  0  0  0  0  0  0
   41.1087   -4.4579   -9.5201 C   0  0  0  0  0  0  0  0  0  0  0  0
   40.8329   -6.4207   -8.0343 C   0  0  2  0  0  0  0  0  0  0  0  0
   40.8667   -7.8720   -8.0960 N   0  0  0  0  0  0  0  0  0  0  0  0
   39.4738   -5.8800   -7.8937 C   0  0  0  0  0  0  0  0  0  0  0  0
   39.0847   -4.8727   -7.0360 O   0  0  0  0  0  0  0  0  0  0  0  0
   38.5139   -6.3514   -8.6114 O   0  0  0  0  0  0  0  0  0  0  0  0
  2  1  1  6
  3  2  1  0
  4  2  1  0
  4  6  1  0
  4  5  1  6
  6  7  2  0
  8  6  1  0
  8  9  1  0
  9 10  1  1
 11 10  1  0
 12 11  2  0
 13 12  1  0
 14 13  1  0
 14 15  2  0
 15 11  1  0
 16  9  1  0
 16 17  2  0
 18 19  1  0
 19 20  1  0
 20 21  1  1
 20 22  1  0
 22 23  1  6
 23 16  1  0
 24 22  1  0
 24 25  1  0
 26 24  2  0
M  END
$$$$
