THI.pdb
     RDKit          3D

 26 26  0  0  1  0  0  0  0  0999 V2000
   24.2605  -11.7195  -18.5546 C   0  0  0  0  0  0  0  0  0  0  0  0
   23.1735  -12.6084  -19.1137 C   0  0  1  0  0  0  0  0  0  0  0  0
   23.7790  -13.7388  -19.6299 O   0  0  0  0  0  0  0  0  0  0  0  0
   22.1251  -12.9154  -18.0740 C   0  0  2  0  0  0  0  0  0  0  0  0
   21.2660  -13.9422  -18.6072 N   0  0  0  0  0  0  0  0  0  0  0  0
   21.3452  -11.7461  -17.6669 C   0  0  0  0  0  0  0  0  0  0  0  0
   20.6047  -11.1657  -18.5007 O   0  0  0  0  0  0  0  0  0  0  0  0
   21.3765  -11.2164  -16.3553 N   0  0  0  0  0  0  0  0  0  0  0  0
   20.5187  -10.0642  -15.9494 C   0  0  1  0  0  0  0  0  0  0  0  0
   19.5464  -10.6065  -14.9379 C   0  0  0  0  0  0  0  0  0  0  0  0
   18.2701  -11.0777  -15.4412 C   0  0  0  0  0  0  0  0  0  0  0  0
   17.8659  -10.9966  -16.7805 C   0  0  0  0  0  0  0  0  0  0  0  0
   16.6427  -11.5345  -16.8098 N   0  0  0  0  0  0  0  0  0  0  0  0
   16.2865  -11.9313  -15.5850 C   0  0  0  0  0  0  0  0  0  0  0  0
   17.2786  -11.6535  -14.7468 N   0  0  0  0  0  0  0  0  0  0  0  0
   21.4001   -9.0432  -15.4027 C   0  0  0  0  0  0  0  0  0  0  0  0
   22.2737   -9.3778  -14.5317 O   0  0  0  0  0  0  0  0  0  0  0  0
   24.9149   -4.4634  -16.8774 C   0  0  0  0  0  0  0  0  0  0  0  0
   24.0224   -5.0165  -15.8221 C   0  0  0  0  0  0  0  0  0  0  0  0
   23.0654   -6.0661  -16.3264 C   0  0  2  0  0  0  0  0  0  0  0  0
   22.0902   -5.5084  -17.3283 C   0  0  0  0  0  0  0  0  0  0  0  0
   22.3049   -6.7189  -15.1776 C   0  0  2  0  0  0  0  0  0  0  0  0
   21.3806   -7.6724  -15.7671 N   0  0  0  0  0  0  0  0  0  0  0  0
   21.6365   -5.6922  -14.3661 C   0  0  0  0  0  0  0  0  0  0  0  0
   20.2796   -5.4512  -14.3171 O   0  0  0  0  0  0  0  0  0  0  0  0
   22.3305   -4.9139  -13.6102 O   0  0  0  0  0  0  0  0  0  0  0  0
  2  1  1  1
  3  2  1  0
  4  2  1  0
  4  6  1  0
  4  5  1  6
  6  7  2  0
  8  6  1  0
  8  9  1  0
  9 10  1  1
 11 10  1  0
 12 11  2  0
 13 12  1  0
 14 13  1  0
 14 15  2  0
 15 11  1  0
 16  9  1  0
 16 17  2  0
 18 19  1  0
 19 20  1  0
 20 21  1  6
 20 22  1  0
 22 23  1  6
 23 16  1  0
 24 22  1  0
 24 25  1  0
 26 24  2  0
M  END
$$$$
