THI.pdb
     RDKit          3D

 26 26  0  0  1  0  0  0  0  0999 V2000
   15.1183   -9.1345  -13.6718 C   0  0  0  0  0  0  0  0  0  0  0  0
   14.6531   -9.1577  -15.1096 C   0  0  1  0  0  0  0  0  0  0  0  0
   14.9190   -7.9167  -15.6574 O   0  0  0  0  0  0  0  0  0  0  0  0
   15.2842  -10.2944  -15.8736 C   0  0  2  0  0  0  0  0  0  0  0  0
   14.8704  -11.5256  -15.2495 N   0  0  0  0  0  0  0  0  0  0  0  0
   16.7436  -10.2130  -15.9433 C   0  0  0  0  0  0  0  0  0  0  0  0
   17.4465  -10.8341  -15.1062 O   0  0  0  0  0  0  0  0  0  0  0  0
   17.4282   -9.4564  -16.9234 N   0  0  0  0  0  0  0  0  0  0  0  0
   18.9182   -9.4464  -17.0136 C   0  0  1  0  0  0  0  0  0  0  0  0
   19.2450   -9.1726  -18.4560 C   0  0  0  0  0  0  0  0  0  0  0  0
   19.3966  -10.3243  -19.3249 C   0  0  0  0  0  0  0  0  0  0  0  0
   19.3859  -11.6556  -18.8876 C   0  0  0  0  0  0  0  0  0  0  0  0
   19.5554  -12.3880  -19.9927 N   0  0  0  0  0  0  0  0  0  0  0  0
   19.6666  -11.5909  -21.0588 C   0  0  0  0  0  0  0  0  0  0  0  0
   19.5699  -10.3297  -20.6541 N   0  0  0  0  0  0  0  0  0  0  0  0
   19.3968   -8.4079  -16.1133 C   0  0  0  0  0  0  0  0  0  0  0  0
   18.6457   -7.4031  -15.8684 O   0  0  0  0  0  0  0  0  0  0  0  0
   20.9180   -6.6988  -11.3921 C   0  0  0  0  0  0  0  0  0  0  0  0
   22.0661   -7.1386  -12.2314 C   0  0  0  0  0  0  0  0  0  0  0  0
   21.6848   -8.1099  -13.3191 C   0  0  2  0  0  0  0  0  0  0  0  0
   22.8692   -8.8919  -13.8204 C   0  0  0  0  0  0  0  0  0  0  0  0
   21.0090   -7.3972  -14.4851 C   0  0  2  0  0  0  0  0  0  0  0  0
   20.6552   -8.4159  -15.4588 N   0  0  0  0  0  0  0  0  0  0  0  0
   21.8990   -6.3622  -15.0291 C   0  0  0  0  0  0  0  0  0  0  0  0
   21.9371   -5.0387  -14.6439 O   0  0  0  0  0  0  0  0  0  0  0  0
   22.7437   -6.6588  -15.9550 O   0  0  0  0  0  0  0  0  0  0  0  0
  2  1  1  1
  3  2  1  0
  4  2  1  0
  4  6  1  0
  4  5  1  1
  6  7  2  0
  8  6  1  0
  8  9  1  0
  9 10  1  6
 11 10  1  0
 12 11  2  0
 13 12  1  0
 14 13  1  0
 14 15  2  0
 15 11  1  0
 16  9  1  0
 16 17  2  0
 18 19  1  0
 19 20  1  0
 20 21  1  6
 20 22  1  0
 22 23  1  6
 23 16  1  0
 24 22  1  0
 24 25  1  0
 26 24  2  0
M  END
$$$$
