THI.pdb
     RDKit          3D

 26 26  0  0  1  0  0  0  0  0999 V2000
   16.4535  -23.9515    0.7499 C   0  0  0  0  0  0  0  0  0  0  0  0
   16.3047  -22.6535    1.5096 C   0  0  1  0  0  0  0  0  0  0  0  0
   17.3964  -21.8615    1.2063 O   0  0  0  0  0  0  0  0  0  0  0  0
   14.9844  -21.9892    1.2102 C   0  0  2  0  0  0  0  0  0  0  0  0
   14.8907  -21.8235   -0.2182 N   0  0  0  0  0  0  0  0  0  0  0  0
   14.8062  -20.7078    1.8939 C   0  0  0  0  0  0  0  0  0  0  0  0
   14.5025  -19.6821    1.2334 O   0  0  0  0  0  0  0  0  0  0  0  0
   14.9597  -20.5512    3.2917 N   0  0  0  0  0  0  0  0  0  0  0  0
   14.5896  -19.2842    3.9888 C   0  0  1  0  0  0  0  0  0  0  0  0
   13.8422  -19.6950    5.2277 C   0  0  0  0  0  0  0  0  0  0  0  0
   12.4539  -20.0804    5.0594 C   0  0  0  0  0  0  0  0  0  0  0  0
   11.5513  -19.4415    4.1986 C   0  0  0  0  0  0  0  0  0  0  0  0
   10.3986  -20.1012    4.3484 N   0  0  0  0  0  0  0  0  0  0  0  0
   10.5468  -21.0882    5.2363 C   0  0  0  0  0  0  0  0  0  0  0  0
   11.8012  -21.0780    5.6724 N   0  0  0  0  0  0  0  0  0  0  0  0
   15.8271  -18.5750    4.2782 C   0  0  0  0  0  0  0  0  0  0  0  0
   16.8846  -19.2475    4.5294 O   0  0  0  0  0  0  0  0  0  0  0  0
   17.6989  -14.1895    1.6830 C   0  0  0  0  0  0  0  0  0  0  0  0
   17.6434  -15.4414    2.4866 C   0  0  0  0  0  0  0  0  0  0  0  0
   17.3130  -15.2149    3.9397 C   0  0  2  0  0  0  0  0  0  0  0  0
   18.3130  -14.3143    4.6139 C   0  0  0  0  0  0  0  0  0  0  0  0
   17.2172  -16.5344    4.6972 C   0  0  2  0  0  0  0  0  0  0  0  0
   15.9697  -17.1638    4.2988 N   0  0  0  0  0  0  0  0  0  0  0  0
   17.3068  -16.2941    6.1441 C   0  0  0  0  0  0  0  0  0  0  0  0
   16.2579  -16.3220    7.0390 O   0  0  0  0  0  0  0  0  0  0  0  0
   18.4447  -16.0270    6.6849 O   0  0  0  0  0  0  0  0  0  0  0  0
  2  1  1  6
  3  2  1  0
  4  2  1  0
  4  6  1  0
  4  5  1  6
  6  7  2  0
  8  6  1  0
  8  9  1  0
  9 10  1  1
 11 10  1  0
 12 11  2  0
 13 12  1  0
 14 13  1  0
 14 15  2  0
 15 11  1  0
 16  9  1  0
 16 17  2  0
 18 19  1  0
 19 20  1  0
 20 21  1  1
 20 22  1  0
 22 23  1  1
 23 16  1  0
 24 22  1  0
 24 25  1  0
 26 24  2  0
M  END
$$$$
