THI.pdb
     RDKit          3D

 26 26  0  0  1  0  0  0  0  0999 V2000
   33.6361  -33.3257  -17.7353 C   0  0  0  0  0  0  0  0  0  0  0  0
   34.8094  -32.3806  -17.8557 C   0  0  1  0  0  0  0  0  0  0  0  0
   35.8807  -33.1014  -18.3495 O   0  0  0  0  0  0  0  0  0  0  0  0
   34.4624  -31.1773  -18.6958 C   0  0  2  0  0  0  0  0  0  0  0  0
   35.5845  -30.2742  -18.6533 N   0  0  0  0  0  0  0  0  0  0  0  0
   33.2361  -30.5015  -18.2708 C   0  0  0  0  0  0  0  0  0  0  0  0
   33.2960  -29.3477  -17.7753 O   0  0  0  0  0  0  0  0  0  0  0  0
   31.9528  -31.0858  -18.3879 N   0  0  0  0  0  0  0  0  0  0  0  0
   30.7061  -30.3138  -18.1086 C   0  0  1  0  0  0  0  0  0  0  0  0
   30.5685  -29.3259  -19.2345 C   0  0  0  0  0  0  0  0  0  0  0  0
   31.3024  -28.0809  -19.1087 C   0  0  0  0  0  0  0  0  0  0  0  0
   31.1113  -27.1470  -18.0815 C   0  0  0  0  0  0  0  0  0  0  0  0
   31.9752  -26.1606  -18.3407 N   0  0  0  0  0  0  0  0  0  0  0  0
   32.6687  -26.4373  -19.4483 C   0  0  0  0  0  0  0  0  0  0  0  0
   32.2600  -27.6097  -19.9197 N   0  0  0  0  0  0  0  0  0  0  0  0
   29.6110  -31.2707  -18.0527 C   0  0  0  0  0  0  0  0  0  0  0  0
   29.5292  -32.1750  -18.9522 O   0  0  0  0  0  0  0  0  0  0  0  0
   27.4905  -32.5863  -13.2345 C   0  0  0  0  0  0  0  0  0  0  0  0
   27.9913  -32.6560  -14.6347 C   0  0  0  0  0  0  0  0  0  0  0  0
   26.9458  -32.3271  -15.6695 C   0  0  2  0  0  0  0  0  0  0  0  0
   25.7923  -33.2935  -15.6359 C   0  0  0  0  0  0  0  0  0  0  0  0
   27.5461  -32.2921  -17.0704 C   0  0  2  0  0  0  0  0  0  0  0  0
   28.6023  -31.2944  -17.0556 N   0  0  0  0  0  0  0  0  0  0  0  0
   26.4989  -32.0102  -18.0620 C   0  0  0  0  0  0  0  0  0  0  0  0
   26.0000  -30.7660  -18.3856 O   0  0  0  0  0  0  0  0  0  0  0  0
   25.9582  -32.9750  -18.7219 O   0  0  0  0  0  0  0  0  0  0  0  0
  2  1  1  6
  3  2  1  0
  4  2  1  0
  4  6  1  0
  4  5  1  1
  6  7  2  0
  8  6  1  0
  8  9  1  0
  9 10  1  6
 11 10  1  0
 12 11  2  0
 13 12  1  0
 14 13  1  0
 14 15  2  0
 15 11  1  0
 16  9  1  0
 16 17  2  0
 18 19  1  0
 19 20  1  0
 20 21  1  6
 20 22  1  0
 22 23  1  1
 23 16  1  0
 24 22  1  0
 24 25  1  0
 26 24  2  0
M  END
$$$$
