THI.pdb
     RDKit          3D

 26 26  0  0  1  0  0  0  0  0999 V2000
   27.6251  -22.2542  -15.6255 C   0  0  0  0  0  0  0  0  0  0  0  0
   28.3897  -21.2376  -16.4418 C   0  0  1  0  0  0  0  0  0  0  0  0
   29.3431  -21.9189  -17.1752 O   0  0  0  0  0  0  0  0  0  0  0  0
   27.4631  -20.4072  -17.2938 C   0  0  2  0  0  0  0  0  0  0  0  0
   28.2703  -19.4756  -18.0402 N   0  0  0  0  0  0  0  0  0  0  0  0
   26.4355  -19.7037  -16.5255 C   0  0  0  0  0  0  0  0  0  0  0  0
   26.7254  -18.6435  -15.9153 O   0  0  0  0  0  0  0  0  0  0  0  0
   25.0994  -20.1587  -16.4264 N   0  0  0  0  0  0  0  0  0  0  0  0
   24.0945  -19.4724  -15.5618 C   0  0  1  0  0  0  0  0  0  0  0  0
   22.8862  -19.2466  -16.4286 C   0  0  0  0  0  0  0  0  0  0  0  0
   22.8584  -18.0252  -17.2107 C   0  0  0  0  0  0  0  0  0  0  0  0
   23.8036  -16.9956  -17.1091 C   0  0  0  0  0  0  0  0  0  0  0  0
   23.4101  -16.0713  -17.9907 N   0  0  0  0  0  0  0  0  0  0  0  0
   22.2981  -16.4739  -18.6120 C   0  0  0  0  0  0  0  0  0  0  0  0
   21.9587  -17.6671  -18.1376 N   0  0  0  0  0  0  0  0  0  0  0  0
   23.8293  -20.3494  -14.4311 C   0  0  0  0  0  0  0  0  0  0  0  0
   23.5657  -21.5811  -14.6483 O   0  0  0  0  0  0  0  0  0  0  0  0
   26.7002  -20.4869   -9.9608 C   0  0  0  0  0  0  0  0  0  0  0  0
   25.7890  -20.8279  -11.0876 C   0  0  0  0  0  0  0  0  0  0  0  0
   24.3376  -20.5380  -10.8025 C   0  0  2  0  0  0  0  0  0  0  0  0
   23.8373  -21.2859   -9.5958 C   0  0  0  0  0  0  0  0  0  0  0  0
   23.4618  -20.8623  -12.0075 C   0  0  2  0  0  0  0  0  0  0  0  0
   23.8458  -19.9491  -13.0703 N   0  0  0  0  0  0  0  0  0  0  0  0
   22.0420  -20.7599  -11.6426 C   0  0  0  0  0  0  0  0  0  0  0  0
   21.2151  -21.8068  -11.2939 O   0  0  0  0  0  0  0  0  0  0  0  0
   21.4600  -19.6110  -11.6301 O   0  0  0  0  0  0  0  0  0  0  0  0
  2  1  1  6
  3  2  1  0
  4  2  1  0
  4  6  1  0
  4  5  1  1
  6  7  2  0
  8  6  1  0
  8  9  1  0
  9 10  1  6
 11 10  1  0
 12 11  2  0
 13 12  1  0
 14 13  1  0
 14 15  2  0
 15 11  1  0
 16  9  1  0
 16 17  2  0
 18 19  1  0
 19 20  1  0
 20 21  1  1
 20 22  1  0
 22 23  1  6
 23 16  1  0
 24 22  1  0
 24 25  1  0
 26 24  2  0
M  END
$$$$
