THI.pdb
     RDKit          3D

 26 26  0  0  1  0  0  0  0  0999 V2000
   23.6927   -9.9979  -21.1776 C   0  0  0  0  0  0  0  0  0  0  0  0
   23.4682  -11.4038  -21.6852 C   0  0  1  0  0  0  0  0  0  0  0  0
   24.0803  -11.5074  -22.9203 O   0  0  0  0  0  0  0  0  0  0  0  0
   23.9513  -12.4307  -20.6921 C   0  0  2  0  0  0  0  0  0  0  0  0
   23.6663  -13.7345  -21.2355 N   0  0  0  0  0  0  0  0  0  0  0  0
   23.3590  -12.2820  -19.3623 C   0  0  0  0  0  0  0  0  0  0  0  0
   22.1812  -12.6692  -19.1542 O   0  0  0  0  0  0  0  0  0  0  0  0
   24.0524  -11.7130  -18.2681 N   0  0  0  0  0  0  0  0  0  0  0  0
   23.4434  -11.6251  -16.9080 C   0  0  1  0  0  0  0  0  0  0  0  0
   24.5190  -12.0442  -15.9437 C   0  0  0  0  0  0  0  0  0  0  0  0
   24.8414  -13.4576  -15.8937 C   0  0  0  0  0  0  0  0  0  0  0  0
   24.2092  -14.4439  -16.6627 C   0  0  0  0  0  0  0  0  0  0  0  0
   24.7984  -15.5914  -16.3125 N   0  0  0  0  0  0  0  0  0  0  0  0
   25.7369  -15.3624  -15.3900 C   0  0  0  0  0  0  0  0  0  0  0  0
   25.7656  -14.0599  -15.1321 N   0  0  0  0  0  0  0  0  0  0  0  0
   23.0121  -10.2482  -16.7180 C   0  0  0  0  0  0  0  0  0  0  0  0
   23.8025   -9.2985  -17.0452 O   0  0  0  0  0  0  0  0  0  0  0  0
   20.5529   -7.7529  -19.2538 C   0  0  0  0  0  0  0  0  0  0  0  0
   20.1327   -8.8229  -18.3079 C   0  0  0  0  0  0  0  0  0  0  0  0
   20.0160   -8.3574  -16.8791 C   0  0  2  0  0  0  0  0  0  0  0  0
   19.4931   -6.9491  -16.7834 C   0  0  0  0  0  0  0  0  0  0  0  0
   21.3528   -8.4594  -16.1533 C   0  0  2  0  0  0  0  0  0  0  0  0
   21.7535   -9.8554  -16.1946 N   0  0  0  0  0  0  0  0  0  0  0  0
   21.2271   -7.9347  -14.7865 C   0  0  0  0  0  0  0  0  0  0  0  0
   21.4960   -6.6435  -14.3838 O   0  0  0  0  0  0  0  0  0  0  0  0
   20.8342   -8.7056  -13.8325 O   0  0  0  0  0  0  0  0  0  0  0  0
  2  1  1  1
  3  2  1  0
  4  2  1  0
  4  6  1  0
  4  5  1  6
  6  7  2  0
  8  6  1  0
  8  9  1  0
  9 10  1  1
 11 10  1  0
 12 11  2  0
 13 12  1  0
 14 13  1  0
 14 15  2  0
 15 11  1  0
 16  9  1  0
 16 17  2  0
 18 19  1  0
 19 20  1  0
 20 21  1  6
 20 22  1  0
 22 23  1  1
 23 16  1  0
 24 22  1  0
 24 25  1  0
 26 24  2  0
M  END
$$$$
