THI.pdb
     RDKit          3D

 26 26  0  0  1  0  0  0  0  0999 V2000
   17.1096  -13.1483  -16.3398 C   0  0  0  0  0  0  0  0  0  0  0  0
   17.7624  -14.5078  -16.4400 C   0  0  1  0  0  0  0  0  0  0  0  0
   16.7657  -15.4608  -16.3434 O   0  0  0  0  0  0  0  0  0  0  0  0
   18.5855  -14.6312  -17.6975 C   0  0  2  0  0  0  0  0  0  0  0  0
   19.1623  -15.9516  -17.7165 N   0  0  0  0  0  0  0  0  0  0  0  0
   19.6256  -13.6089  -17.8182 C   0  0  0  0  0  0  0  0  0  0  0  0
   20.7315  -13.7692  -17.2423 O   0  0  0  0  0  0  0  0  0  0  0  0
   19.4551  -12.4193  -18.5649 N   0  0  0  0  0  0  0  0  0  0  0  0
   20.5060  -11.3602  -18.6120 C   0  0  1  0  0  0  0  0  0  0  0  0
   20.1865  -10.5112  -19.8118 C   0  0  0  0  0  0  0  0  0  0  0  0
   21.0360   -9.3588  -20.0456 C   0  0  0  0  0  0  0  0  0  0  0  0
   21.1030   -8.2386  -19.2063 C   0  0  0  0  0  0  0  0  0  0  0  0
   21.9927   -7.4236  -19.7814 N   0  0  0  0  0  0  0  0  0  0  0  0
   22.4623   -7.9756  -20.9035 C   0  0  0  0  0  0  0  0  0  0  0  0
   21.8798   -9.1578  -21.0676 N   0  0  0  0  0  0  0  0  0  0  0  0
   20.4329  -10.6255  -17.3578 C   0  0  0  0  0  0  0  0  0  0  0  0
   19.2954  -10.4633  -16.7979 O   0  0  0  0  0  0  0  0  0  0  0  0
   20.9923   -9.9235  -12.2543 C   0  0  0  0  0  0  0  0  0  0  0  0
   22.1634   -9.4405  -13.0361 C   0  0  0  0  0  0  0  0  0  0  0  0
   22.2824  -10.0695  -14.4008 C   0  0  2  0  0  0  0  0  0  0  0  0
   23.7027  -10.0763  -14.8991 C   0  0  0  0  0  0  0  0  0  0  0  0
   21.3858   -9.3666  -15.4138 C   0  0  2  0  0  0  0  0  0  0  0  0
   21.5446  -10.0644  -16.6783 N   0  0  0  0  0  0  0  0  0  0  0  0
   21.7335   -7.9411  -15.4930 C   0  0  0  0  0  0  0  0  0  0  0  0
   22.4493   -7.3341  -16.5033 O   0  0  0  0  0  0  0  0  0  0  0  0
   21.3634   -7.1336  -14.5604 O   0  0  0  0  0  0  0  0  0  0  0  0
  2  1  1  6
  3  2  1  0
  4  2  1  0
  4  6  1  0
  4  5  1  1
  6  7  2  0
  8  6  1  0
  8  9  1  0
  9 10  1  6
 11 10  1  0
 12 11  2  0
 13 12  1  0
 14 13  1  0
 14 15  2  0
 15 11  1  0
 16  9  1  0
 16 17  2  0
 18 19  1  0
 19 20  1  0
 20 21  1  6
 20 22  1  0
 22 23  1  6
 23 16  1  0
 24 22  1  0
 24 25  1  0
 26 24  2  0
M  END
$$$$
