THI.pdb
     RDKit          3D

 26 26  0  0  1  0  0  0  0  0999 V2000
   34.7889  -24.9408  -18.6982 C   0  0  0  0  0  0  0  0  0  0  0  0
   33.7847  -24.8104  -17.5762 C   0  0  1  0  0  0  0  0  0  0  0  0
   33.2392  -23.5421  -17.6458 O   0  0  0  0  0  0  0  0  0  0  0  0
   32.7519  -25.9078  -17.6321 C   0  0  2  0  0  0  0  0  0  0  0  0
   31.8037  -25.6722  -16.5729 N   0  0  0  0  0  0  0  0  0  0  0  0
   33.3208  -27.2520  -17.5296 C   0  0  0  0  0  0  0  0  0  0  0  0
   33.3860  -27.8212  -16.4106 O   0  0  0  0  0  0  0  0  0  0  0  0
   33.8151  -27.9678  -18.6456 N   0  0  0  0  0  0  0  0  0  0  0  0
   34.2247  -29.3997  -18.5458 C   0  0  1  0  0  0  0  0  0  0  0  0
   34.0421  -29.9807  -19.9211 C   0  0  0  0  0  0  0  0  0  0  0  0
   32.7330  -30.5195  -20.2376 C   0  0  0  0  0  0  0  0  0  0  0  0
   31.8071  -30.9666  -19.2855 C   0  0  0  0  0  0  0  0  0  0  0  0
   30.7500  -31.3784  -19.9922 N   0  0  0  0  0  0  0  0  0  0  0  0
   30.9770  -31.2098  -21.2977 C   0  0  0  0  0  0  0  0  0  0  0  0
   32.1875  -30.6853  -21.4508 N   0  0  0  0  0  0  0  0  0  0  0  0
   35.6090  -29.4209  -18.0970 C   0  0  0  0  0  0  0  0  0  0  0  0
   36.3836  -28.4587  -18.4253 O   0  0  0  0  0  0  0  0  0  0  0  0
   36.7449  -30.9865  -13.1455 C   0  0  0  0  0  0  0  0  0  0  0  0
   36.6846  -30.3988  -14.5119 C   0  0  0  0  0  0  0  0  0  0  0  0
   37.6388  -31.0367  -15.4889 C   0  0  2  0  0  0  0  0  0  0  0  0
   39.0576  -31.0218  -14.9863 C   0  0  0  0  0  0  0  0  0  0  0  0
   37.5697  -30.3584  -16.8524 C   0  0  2  0  0  0  0  0  0  0  0  0
   36.1892  -30.4396  -17.2982 N   0  0  0  0  0  0  0  0  0  0  0  0
   38.5150  -30.9932  -17.7812 C   0  0  0  0  0  0  0  0  0  0  0  0
   38.1875  -31.8195  -18.8355 O   0  0  0  0  0  0  0  0  0  0  0  0
   39.7810  -30.7974  -17.6479 O   0  0  0  0  0  0  0  0  0  0  0  0
  2  1  1  6
  3  2  1  0
  4  2  1  0
  4  6  1  0
  4  5  1  1
  6  7  2  0
  8  6  1  0
  8  9  1  0
  9 10  1  6
 11 10  1  0
 12 11  2  0
 13 12  1  0
 14 13  1  0
 14 15  2  0
 15 11  1  0
 16  9  1  0
 16 17  2  0
 18 19  1  0
 19 20  1  0
 20 21  1  1
 20 22  1  0
 22 23  1  6
 23 16  1  0
 24 22  1  0
 24 25  1  0
 26 24  2  0
M  END
$$$$
