THI.pdb
     RDKit          3D

 26 26  0  0  1  0  0  0  0  0999 V2000
   24.0403   -8.2020  -21.2001 C   0  0  0  0  0  0  0  0  0  0  0  0
   23.7351   -9.6002  -21.6860 C   0  0  1  0  0  0  0  0  0  0  0  0
   23.9616   -9.6301  -23.0494 O   0  0  0  0  0  0  0  0  0  0  0  0
   24.5304  -10.6322  -20.9266 C   0  0  2  0  0  0  0  0  0  0  0  0
   24.1796  -11.9284  -21.4494 N   0  0  0  0  0  0  0  0  0  0  0  0
   24.3214  -10.5826  -19.4792 C   0  0  0  0  0  0  0  0  0  0  0  0
   23.3468  -11.1884  -18.9657 O   0  0  0  0  0  0  0  0  0  0  0  0
   25.1743   -9.8741  -18.6003 N   0  0  0  0  0  0  0  0  0  0  0  0
   24.8798   -9.7536  -17.1419 C   0  0  1  0  0  0  0  0  0  0  0  0
   26.2138   -9.7584  -16.4470 C   0  0  0  0  0  0  0  0  0  0  0  0
   26.8433  -11.0493  -16.2435 C   0  0  0  0  0  0  0  0  0  0  0  0
   26.2252  -12.2821  -16.4924 C   0  0  0  0  0  0  0  0  0  0  0  0
   27.1409  -13.2027  -16.1756 N   0  0  0  0  0  0  0  0  0  0  0  0
   28.2615  -12.6095  -15.7553 C   0  0  0  0  0  0  0  0  0  0  0  0
   28.0828  -11.2940  -15.7957 N   0  0  0  0  0  0  0  0  0  0  0  0
   24.1428   -8.5128  -16.9529 C   0  0  0  0  0  0  0  0  0  0  0  0
   24.5848   -7.4397  -17.4885 O   0  0  0  0  0  0  0  0  0  0  0  0
   19.7914   -5.5740  -18.6915 C   0  0  0  0  0  0  0  0  0  0  0  0
   20.5822   -5.7486  -17.4425 C   0  0  0  0  0  0  0  0  0  0  0  0
   21.2994   -7.0717  -17.3590 C   0  0  2  0  0  0  0  0  0  0  0  0
   20.3425   -8.2330  -17.3220 C   0  0  0  0  0  0  0  0  0  0  0  0
   22.2203   -7.1259  -16.1453 C   0  0  2  0  0  0  0  0  0  0  0  0
   22.9392   -8.3868  -16.2130 N   0  0  0  0  0  0  0  0  0  0  0  0
   21.4386   -6.9721  -14.9105 C   0  0  0  0  0  0  0  0  0  0  0  0
   21.0179   -5.7807  -14.3582 O   0  0  0  0  0  0  0  0  0  0  0  0
   21.0844   -8.0112  -14.2371 O   0  0  0  0  0  0  0  0  0  0  0  0
  2  1  1  1
  3  2  1  0
  4  2  1  0
  4  6  1  0
  4  5  1  6
  6  7  2  0
  8  6  1  0
  8  9  1  0
  9 10  1  1
 11 10  1  0
 12 11  2  0
 13 12  1  0
 14 13  1  0
 14 15  2  0
 15 11  1  0
 16  9  1  0
 16 17  2  0
 18 19  1  0
 19 20  1  0
 20 21  1  1
 20 22  1  0
 22 23  1  1
 23 16  1  0
 24 22  1  0
 24 25  1  0
 26 24  2  0
M  END
$$$$
