KNG.pdb
     RDKit          3D

 22 21  0  0  1  0  0  0  0  0999 V2000
   27.7345  -23.5375  -16.2911 N   0  0  0  0  0  0  0  0  0  0  0  0
   27.7753  -22.1968  -15.7840 C   0  0  1  0  0  0  0  0  0  0  0  0
   27.4446  -21.1195  -16.7488 C   0  0  0  0  0  0  0  0  0  0  0  0
   28.4705  -20.9737  -17.8231 C   0  0  0  0  0  0  0  0  0  0  0  0
   28.2084  -19.9459  -18.8642 C   0  0  0  0  0  0  0  0  0  0  0  0
   29.3734  -19.8830  -19.8420 C   0  0  0  0  0  0  0  0  0  0  0  0
   29.0695  -18.8794  -20.8167 N   0  0  0  0  0  0  0  0  0  0  0  0
   26.8080  -22.0871  -14.6338 C   0  0  0  0  0  0  0  0  0  0  0  0
   25.8681  -22.9147  -14.5952 O   0  0  0  0  0  0  0  0  0  0  0  0
   24.3596  -21.2557  -10.2952 N   0  0  0  0  0  0  0  0  0  0  0  0
   25.7206  -20.8211  -10.0874 C   0  0  0  0  0  0  0  0  0  0  0  0
   25.9971  -20.4991   -8.9160 O   0  0  0  0  0  0  0  0  0  0  0  0
   26.6385  -20.7904  -11.2171 C   0  0  0  0  0  0  0  0  0  0  0  0
   25.9869  -21.1738  -12.4982 C   0  0  2  0  0  0  0  0  0  0  0  0
   26.9233  -21.1061  -13.6218 N   0  0  0  0  0  0  0  0  0  0  0  0
   24.7765  -20.4407  -12.8665 C   0  0  0  0  0  0  0  0  0  0  0  0
   24.7360  -19.2073  -12.9899 O   0  0  0  0  0  0  0  0  0  0  0  0
   23.5534  -21.1432  -13.1060 N   0  0  0  0  0  0  0  0  0  0  0  0
   22.3550  -20.4780  -13.5416 C   0  0  0  0  0  0  0  0  0  0  0  0
   21.3429  -20.3872  -12.4658 C   0  0  0  0  0  0  0  0  0  0  0  0
   21.4932  -21.0024  -11.3810 O   0  0  0  0  0  0  0  0  0  0  0  0
   20.1865  -19.6260  -12.5958 O   0  0  0  0  0  0  0  0  0  0  0  0
  2  1  1  6
  2  3  1  0
  2  8  1  0
  4  3  1  0
  5  4  1  0
  6  5  1  0
  7  6  1  0
  8  9  2  0
 11 13  1  0
 11 10  1  0
 12 11  2  0
 14 13  1  1
 14 16  1  0
 15 14  1  0
 15  8  1  0
 16 17  2  0
 18 19  1  0
 18 16  1  0
 19 20  1  0
 20 21  2  0
 20 22  1  0
M  END
$$$$
