KNG.pdb
     RDKit          3D

 22 21  0  0  1  0  0  0  0  0999 V2000
   22.9746  -15.7582  -17.7721 N   0  0  0  0  0  0  0  0  0  0  0  0
   21.6990  -15.2601  -17.3467 C   0  0  1  0  0  0  0  0  0  0  0  0
   21.1969  -15.7668  -16.0458 C   0  0  0  0  0  0  0  0  0  0  0  0
   20.9551  -17.2396  -16.0561 C   0  0  0  0  0  0  0  0  0  0  0  0
   20.5383  -17.8586  -14.7707 C   0  0  0  0  0  0  0  0  0  0  0  0
   20.3126  -19.3524  -14.9586 C   0  0  0  0  0  0  0  0  0  0  0  0
   19.9416  -19.8993  -13.6886 N   0  0  0  0  0  0  0  0  0  0  0  0
   21.7765  -13.7584  -17.2482 C   0  0  0  0  0  0  0  0  0  0  0  0
   22.8815  -13.2620  -16.9281 O   0  0  0  0  0  0  0  0  0  0  0  0
   18.1897  -10.0517  -19.7412 N   0  0  0  0  0  0  0  0  0  0  0  0
   18.9028  -10.9224  -18.8368 C   0  0  0  0  0  0  0  0  0  0  0  0
   18.1824  -11.6742  -18.1527 O   0  0  0  0  0  0  0  0  0  0  0  0
   20.3567  -10.8630  -18.7892 C   0  0  0  0  0  0  0  0  0  0  0  0
   20.9169  -11.4698  -17.5519 C   0  0  2  0  0  0  0  0  0  0  0  0
   20.6716  -12.9124  -17.4991 N   0  0  0  0  0  0  0  0  0  0  0  0
   20.4902  -10.8863  -16.2809 C   0  0  0  0  0  0  0  0  0  0  0  0
   19.6468  -11.4103  -15.5378 O   0  0  0  0  0  0  0  0  0  0  0  0
   21.0490   -9.6477  -15.8330 N   0  0  0  0  0  0  0  0  0  0  0  0
   20.6289   -9.0082  -14.6152 C   0  0  0  0  0  0  0  0  0  0  0  0
   21.3307   -7.7257  -14.3859 C   0  0  0  0  0  0  0  0  0  0  0  0
   22.2736   -7.3606  -15.1311 O   0  0  0  0  0  0  0  0  0  0  0  0
   20.9886   -6.8669  -13.3471 O   0  0  0  0  0  0  0  0  0  0  0  0
  2  1  1  1
  2  3  1  0
  2  8  1  0
  4  3  1  0
  5  4  1  0
  6  5  1  0
  7  6  1  0
  8  9  2  0
 11 13  1  0
 11 10  1  0
 12 11  2  0
 14 13  1  6
 14 16  1  0
 15 14  1  0
 15  8  1  0
 16 17  2  0
 18 19  1  0
 18 16  1  0
 19 20  1  0
 20 21  2  0
 20 22  1  0
M  END
$$$$
