KNG.pdb
     RDKit          3D

 22 21  0  0  1  0  0  0  0  0999 V2000
   26.4802  -21.1088  -15.0898 N   0  0  0  0  0  0  0  0  0  0  0  0
   26.7752  -19.7368  -14.7955 C   0  0  1  0  0  0  0  0  0  0  0  0
   27.8953  -19.1286  -15.5548 C   0  0  0  0  0  0  0  0  0  0  0  0
   28.3554  -19.9851  -16.6872 C   0  0  0  0  0  0  0  0  0  0  0  0
   28.9548  -21.2982  -16.3329 C   0  0  0  0  0  0  0  0  0  0  0  0
   29.3802  -22.0363  -17.5945 C   0  0  0  0  0  0  0  0  0  0  0  0
   29.9083  -23.3066  -17.1981 N   0  0  0  0  0  0  0  0  0  0  0  0
   25.5442  -18.9106  -15.0650 C   0  0  0  0  0  0  0  0  0  0  0  0
   25.6063  -17.6875  -14.8003 O   0  0  0  0  0  0  0  0  0  0  0  0
   24.5442  -16.0190  -17.7899 N   0  0  0  0  0  0  0  0  0  0  0  0
   23.3585  -16.5512  -17.1612 C   0  0  0  0  0  0  0  0  0  0  0  0
   22.5907  -15.6971  -16.6781 O   0  0  0  0  0  0  0  0  0  0  0  0
   23.1514  -17.9920  -17.1363 C   0  0  0  0  0  0  0  0  0  0  0  0
   23.2077  -18.5575  -15.7616 C   0  0  2  0  0  0  0  0  0  0  0  0
   24.3515  -19.4561  -15.5937 N   0  0  0  0  0  0  0  0  0  0  0  0
   22.0101  -19.2470  -15.2836 C   0  0  0  0  0  0  0  0  0  0  0  0
   21.8605  -20.4767  -15.3431 O   0  0  0  0  0  0  0  0  0  0  0  0
   20.9308  -18.5031  -14.7104 N   0  0  0  0  0  0  0  0  0  0  0  0
   19.9045  -19.1222  -13.9154 C   0  0  0  0  0  0  0  0  0  0  0  0
   19.1366  -20.1302  -14.6796 C   0  0  0  0  0  0  0  0  0  0  0  0
   17.9571  -19.9040  -15.0478 O   0  0  0  0  0  0  0  0  0  0  0  0
   19.6720  -21.3657  -15.0268 O   0  0  0  0  0  0  0  0  0  0  0  0
  2  1  1  6
  2  3  1  0
  2  8  1  0
  4  3  1  0
  5  4  1  0
  6  5  1  0
  7  6  1  0
  8  9  2  0
 11 13  1  0
 11 10  1  0
 12 11  2  0
 14 13  1  6
 14 16  1  0
 15 14  1  0
 15  8  1  0
 16 17  2  0
 18 19  1  0
 18 16  1  0
 19 20  1  0
 20 21  2  0
 20 22  1  0
M  END
$$$$
