KNG.pdb
     RDKit          3D

 22 21  0  0  1  0  0  0  0  0999 V2000
   28.2609  -20.4110  -17.1826 N   0  0  0  0  0  0  0  0  0  0  0  0
   28.3669  -19.6561  -15.9680 C   0  0  1  0  0  0  0  0  0  0  0  0
   28.2262  -18.1847  -16.0952 C   0  0  0  0  0  0  0  0  0  0  0  0
   27.1557  -17.7895  -17.0572 C   0  0  0  0  0  0  0  0  0  0  0  0
   27.5933  -17.4025  -18.4239 C   0  0  0  0  0  0  0  0  0  0  0  0
   26.4014  -16.9160  -19.2364 C   0  0  0  0  0  0  0  0  0  0  0  0
   26.8785  -16.5616  -20.5388 N   0  0  0  0  0  0  0  0  0  0  0  0
   27.3045  -20.1314  -15.0110 C   0  0  0  0  0  0  0  0  0  0  0  0
   26.3921  -20.8510  -15.4798 O   0  0  0  0  0  0  0  0  0  0  0  0
   24.4837  -21.6705  -11.1527 N   0  0  0  0  0  0  0  0  0  0  0  0
   25.6674  -21.1169  -10.5387 C   0  0  0  0  0  0  0  0  0  0  0  0
   25.7462  -21.2805   -9.3060 O   0  0  0  0  0  0  0  0  0  0  0  0
   26.6474  -20.4330  -11.3702 C   0  0  0  0  0  0  0  0  0  0  0  0
   26.2433  -20.3686  -12.8004 C   0  0  2  0  0  0  0  0  0  0  0  0
   27.3033  -19.8010  -13.6360 N   0  0  0  0  0  0  0  0  0  0  0  0
   24.9972  -19.6652  -13.1016 C   0  0  0  0  0  0  0  0  0  0  0  0
   24.8914  -18.4295  -13.0934 O   0  0  0  0  0  0  0  0  0  0  0  0
   23.8148  -20.4016  -13.4277 N   0  0  0  0  0  0  0  0  0  0  0  0
   22.5632  -19.7582  -13.7242 C   0  0  0  0  0  0  0  0  0  0  0  0
   21.4708  -20.7326  -13.9416 C   0  0  0  0  0  0  0  0  0  0  0  0
   21.7030  -21.9661  -13.9913 O   0  0  0  0  0  0  0  0  0  0  0  0
   20.1462  -20.3405  -14.1004 O   0  0  0  0  0  0  0  0  0  0  0  0
  2  1  1  6
  2  3  1  0
  2  8  1  0
  4  3  1  0
  5  4  1  0
  6  5  1  0
  7  6  1  0
  8  9  2  0
 11 13  1  0
 11 10  1  0
 12 11  2  0
 14 13  1  1
 14 16  1  0
 15 14  1  0
 15  8  1  0
 16 17  2  0
 18 19  1  0
 18 16  1  0
 19 20  1  0
 20 21  2  0
 20 22  1  0
M  END
$$$$
