KNG.pdb
     RDKit          3D

 22 21  0  0  1  0  0  0  0  0999 V2000
   18.9895  -22.0010  -10.2290 N   0  0  0  0  0  0  0  0  0  0  0  0
   19.5846  -22.6947  -11.3339 C   0  0  1  0  0  0  0  0  0  0  0  0
   18.6504  -23.3929  -12.2508 C   0  0  0  0  0  0  0  0  0  0  0  0
   18.3523  -24.7891  -11.8156 C   0  0  0  0  0  0  0  0  0  0  0  0
   17.7996  -24.9602  -10.4466 C   0  0  0  0  0  0  0  0  0  0  0  0
   17.3932  -26.4103  -10.2241 C   0  0  0  0  0  0  0  0  0  0  0  0
   16.8860  -26.5200   -8.8899 N   0  0  0  0  0  0  0  0  0  0  0  0
   20.3717  -21.7067  -12.1555 C   0  0  0  0  0  0  0  0  0  0  0  0
   20.3945  -20.5194  -11.7560 O   0  0  0  0  0  0  0  0  0  0  0  0
   24.1216  -19.7839  -12.9691 N   0  0  0  0  0  0  0  0  0  0  0  0
   24.3338  -20.9666  -13.7696 C   0  0  0  0  0  0  0  0  0  0  0  0
   25.5148  -21.3595  -13.8251 O   0  0  0  0  0  0  0  0  0  0  0  0
   23.1974  -21.5925  -14.4304 C   0  0  0  0  0  0  0  0  0  0  0  0
   21.8927  -21.0413  -13.9757 C   0  0  2  0  0  0  0  0  0  0  0  0
   21.0681  -22.0663  -13.3326 N   0  0  0  0  0  0  0  0  0  0  0  0
   21.0773  -20.3635  -14.9826 C   0  0  0  0  0  0  0  0  0  0  0  0
   20.2053  -20.9359  -15.6535 O   0  0  0  0  0  0  0  0  0  0  0  0
   21.2621  -18.9682  -15.2394 N   0  0  0  0  0  0  0  0  0  0  0  0
   20.1599  -18.0489  -15.3319 C   0  0  0  0  0  0  0  0  0  0  0  0
   19.9394  -17.5774  -16.7172 C   0  0  0  0  0  0  0  0  0  0  0  0
   20.8769  -17.5607  -17.5530 O   0  0  0  0  0  0  0  0  0  0  0  0
   18.6991  -17.1334  -17.1623 O   0  0  0  0  0  0  0  0  0  0  0  0
  2  1  1  1
  2  3  1  0
  2  8  1  0
  4  3  1  0
  5  4  1  0
  6  5  1  0
  7  6  1  0
  8  9  2  0
 11 13  1  0
 11 10  1  0
 12 11  2  0
 14 13  1  6
 14 16  1  0
 15 14  1  0
 15  8  1  0
 16 17  2  0
 18 19  1  0
 18 16  1  0
 19 20  1  0
 20 21  2  0
 20 22  1  0
M  END
$$$$
