KNG.pdb
     RDKit          3D

 22 21  0  0  1  0  0  0  0  0999 V2000
   24.6681  -22.2018  -15.9656 N   0  0  0  0  0  0  0  0  0  0  0  0
   24.3912  -21.0811  -15.1150 C   0  0  1  0  0  0  0  0  0  0  0  0
   25.1431  -19.8354  -15.4046 C   0  0  0  0  0  0  0  0  0  0  0  0
   26.6201  -20.0484  -15.4359 C   0  0  0  0  0  0  0  0  0  0  0  0
   27.2482  -20.1881  -16.7756 C   0  0  0  0  0  0  0  0  0  0  0  0
   28.7632  -20.2482  -16.6391 C   0  0  0  0  0  0  0  0  0  0  0  0
   29.3153  -20.3394  -17.9569 N   0  0  0  0  0  0  0  0  0  0  0  0
   22.9228  -20.7559  -15.2091 C   0  0  0  0  0  0  0  0  0  0  0  0
   22.3700  -20.9211  -16.3213 O   0  0  0  0  0  0  0  0  0  0  0  0
   20.3984  -22.7790  -14.5601 N   0  0  0  0  0  0  0  0  0  0  0  0
   19.8284  -22.1517  -13.3912 C   0  0  0  0  0  0  0  0  0  0  0  0
   19.2836  -22.9328  -12.5879 O   0  0  0  0  0  0  0  0  0  0  0  0
   19.9260  -20.7071  -13.2393 C   0  0  0  0  0  0  0  0  0  0  0  0
   20.7328  -20.0691  -14.3140 C   0  0  2  0  0  0  0  0  0  0  0  0
   22.1672  -20.2827  -14.1115 N   0  0  0  0  0  0  0  0  0  0  0  0
   20.5109  -18.6424  -14.5451 C   0  0  0  0  0  0  0  0  0  0  0  0
   20.8036  -17.7633  -13.7207 O   0  0  0  0  0  0  0  0  0  0  0  0
   19.9282  -18.1933  -15.7722 N   0  0  0  0  0  0  0  0  0  0  0  0
   19.7582  -16.7987  -16.0799 C   0  0  0  0  0  0  0  0  0  0  0  0
   18.3520  -16.3612  -15.9349 C   0  0  0  0  0  0  0  0  0  0  0  0
   17.4568  -17.1655  -15.5746 O   0  0  0  0  0  0  0  0  0  0  0  0
   17.9510  -15.0536  -16.1862 O   0  0  0  0  0  0  0  0  0  0  0  0
  2  1  1  6
  2  3  1  0
  2  8  1  0
  4  3  1  0
  5  4  1  0
  6  5  1  0
  7  6  1  0
  8  9  2  0
 11 13  1  0
 11 10  1  0
 12 11  2  0
 14 13  1  1
 14 16  1  0
 15 14  1  0
 15  8  1  0
 16 17  2  0
 18 19  1  0
 18 16  1  0
 19 20  1  0
 20 21  2  0
 20 22  1  0
M  END
$$$$
