VSV.pdb
     RDKit          3D

 21 20  0  0  1  0  0  0  0  0999 V2000
   11.9529  -19.4171   20.9960 C   0  0  0  0  0  0  0  0  0  0  0  0
   11.2926  -18.2167   21.6302 C   0  0  1  0  0  0  0  0  0  0  0  0
   12.2705  -17.4658   22.4825 C   0  0  0  0  0  0  0  0  0  0  0  0
   10.6253  -17.3406   20.5904 C   0  0  2  0  0  0  0  0  0  0  0  0
   11.6275  -16.8771   19.6837 N   0  0  0  0  0  0  0  0  0  0  0  0
    9.8176  -16.2730   21.1893 C   0  0  0  0  0  0  0  0  0  0  0  0
   10.3251  -15.1445   21.3581 O   0  0  0  0  0  0  0  0  0  0  0  0
    5.8378  -16.9123   22.4074 O   0  0  0  0  0  0  0  0  0  0  0  0
    6.2005  -15.6047   22.1006 C   0  0  0  0  0  0  0  0  0  0  0  0
    7.6931  -15.4008   22.2224 C   0  0  2  0  0  0  0  0  0  0  0  0
    8.4539  -16.4408   21.6035 N   0  0  0  0  0  0  0  0  0  0  0  0
    8.0133  -15.3556   23.6683 C   0  0  0  0  0  0  0  0  0  0  0  0
    8.6763  -16.2685   24.1809 O   0  0  0  0  0  0  0  0  0  0  0  0
    5.8319  -12.8476   26.3731 C   0  0  0  0  0  0  0  0  0  0  0  0
    7.3244  -12.9678   26.5041 C   0  0  2  0  0  0  0  0  0  0  0  0
    7.9705  -11.7926   25.8390 C   0  0  0  0  0  0  0  0  0  0  0  0
    7.8301  -14.2893   25.9418 C   0  0  2  0  0  0  0  0  0  0  0  0
    7.5897  -14.2952   24.5169 N   0  0  0  0  0  0  0  0  0  0  0  0
    7.2081  -15.4507   26.6174 C   0  0  0  0  0  0  0  0  0  0  0  0
    7.7620  -15.9810   27.7517 O   0  0  0  0  0  0  0  0  0  0  0  0
    6.1609  -15.9642   26.1551 O   0  0  0  0  0  0  0  0  0  0  0  0
  2  1  1  6
  2  4  1  0
  3  2  1  0
  4  5  1  6
  6  4  1  0
  7  6  2  0
  8  9  1  0
 10  9  1  1
 10 11  1  0
 10 12  1  0
 11  6  1  0
 12 18  1  0
 12 13  2  0
 15 14  1  6
 16 15  1  0
 17 15  1  0
 17 18  1  6
 19 17  1  0
 19 20  1  0
 21 19  2  0
M  END
$$$$
