VSV.pdb
     RDKit          3D

 21 20  0  0  1  0  0  0  0  0999 V2000
   10.9779  -21.2270   18.8061 C   0  0  0  0  0  0  0  0  0  0  0  0
   10.4696  -20.3242   17.7081 C   0  0  1  0  0  0  0  0  0  0  0  0
   10.5720  -21.0044   16.3764 C   0  0  0  0  0  0  0  0  0  0  0  0
    9.0712  -19.8252   18.0073 C   0  0  2  0  0  0  0  0  0  0  0  0
    8.6564  -18.9804   16.9323 N   0  0  0  0  0  0  0  0  0  0  0  0
    8.9670  -19.2055   19.3324 C   0  0  0  0  0  0  0  0  0  0  0  0
    9.4725  -18.0794   19.5218 O   0  0  0  0  0  0  0  0  0  0  0  0
    7.3536  -21.2063   22.7184 O   0  0  0  0  0  0  0  0  0  0  0  0
    7.1472  -19.8346   22.6126 C   0  0  0  0  0  0  0  0  0  0  0  0
    8.1847  -19.1852   21.7260 C   0  0  2  0  0  0  0  0  0  0  0  0
    8.3091  -19.8188   20.4507 N   0  0  0  0  0  0  0  0  0  0  0  0
    9.4815  -19.2629   22.4384 C   0  0  0  0  0  0  0  0  0  0  0  0
   10.5342  -19.3622   21.7921 O   0  0  0  0  0  0  0  0  0  0  0  0
   12.9828  -17.9890   24.8362 C   0  0  0  0  0  0  0  0  0  0  0  0
   11.6518  -18.0370   24.1396 C   0  0  2  0  0  0  0  0  0  0  0  0
   10.9107  -16.7650   24.4110 C   0  0  0  0  0  0  0  0  0  0  0  0
   10.8488  -19.2630   24.5527 C   0  0  2  0  0  0  0  0  0  0  0  0
    9.5826  -19.2288   23.8571 N   0  0  0  0  0  0  0  0  0  0  0  0
   10.6770  -19.3410   26.0212 C   0  0  0  0  0  0  0  0  0  0  0  0
   11.5944  -19.9932   26.8006 O   0  0  0  0  0  0  0  0  0  0  0  0
    9.6831  -18.8071   26.5702 O   0  0  0  0  0  0  0  0  0  0  0  0
  2  1  1  1
  2  4  1  0
  3  2  1  0
  4  5  1  6
  6  4  1  0
  7  6  2  0
  8  9  1  0
 10  9  1  1
 10 11  1  0
 10 12  1  0
 11  6  1  0
 12 18  1  0
 12 13  2  0
 15 14  1  1
 16 15  1  0
 17 15  1  0
 17 18  1  6
 19 17  1  0
 19 20  1  0
 21 19  2  0
M  END
$$$$
