VSV.pdb
     RDKit          3D

 21 20  0  0  1  0  0  0  0  0999 V2000
    8.2489  -12.4654   20.5115 C   0  0  0  0  0  0  0  0  0  0  0  0
    7.8088  -13.3847   19.3978 C   0  0  1  0  0  0  0  0  0  0  0  0
    8.2498  -12.8513   18.0683 C   0  0  0  0  0  0  0  0  0  0  0  0
    8.2685  -14.8070   19.6424 C   0  0  2  0  0  0  0  0  0  0  0  0
    7.8184  -15.6175   18.5553 N   0  0  0  0  0  0  0  0  0  0  0  0
    7.8764  -15.3050   20.9649 C   0  0  0  0  0  0  0  0  0  0  0  0
    6.6772  -15.5750   21.1852 O   0  0  0  0  0  0  0  0  0  0  0  0
   10.4051  -17.3230   23.4946 O   0  0  0  0  0  0  0  0  0  0  0  0
    9.0231  -17.3508   23.6513 C   0  0  0  0  0  0  0  0  0  0  0  0
    8.4015  -16.0126   23.3239 C   0  0  2  0  0  0  0  0  0  0  0  0
    8.7974  -15.5074   22.0466 N   0  0  0  0  0  0  0  0  0  0  0  0
    8.8260  -15.0619   24.3781 C   0  0  0  0  0  0  0  0  0  0  0  0
    9.8888  -14.4372   24.2522 O   0  0  0  0  0  0  0  0  0  0  0  0
    6.1174  -13.5267   27.2127 C   0  0  0  0  0  0  0  0  0  0  0  0
    7.4375  -12.9022   26.8570 C   0  0  2  0  0  0  0  0  0  0  0  0
    7.2537  -12.0124   25.6673 C   0  0  0  0  0  0  0  0  0  0  0  0
    8.5088  -13.9575   26.6185 C   0  0  2  0  0  0  0  0  0  0  0  0
    8.0596  -14.8241   25.5529 N   0  0  0  0  0  0  0  0  0  0  0  0
    8.8268  -14.7101   27.8533 C   0  0  0  0  0  0  0  0  0  0  0  0
    9.4409  -14.0944   28.9109 O   0  0  0  0  0  0  0  0  0  0  0  0
    8.5353  -15.9270   27.9441 O   0  0  0  0  0  0  0  0  0  0  0  0
  2  1  1  1
  2  4  1  0
  3  2  1  0
  4  5  1  6
  6  4  1  0
  7  6  2  0
  8  9  1  0
 10  9  1  1
 10 11  1  0
 10 12  1  0
 11  6  1  0
 12 18  1  0
 12 13  2  0
 15 14  1  6
 16 15  1  0
 17 15  1  0
 17 18  1  6
 19 17  1  0
 19 20  1  0
 21 19  2  0
M  END
$$$$
