VSV.pdb
     RDKit          3D

 21 20  0  0  1  0  0  0  0  0999 V2000
   11.6431  -16.6620   21.8567 C   0  0  0  0  0  0  0  0  0  0  0  0
   10.6648  -16.7826   20.7132 C   0  0  1  0  0  0  0  0  0  0  0  0
   11.3317  -17.3753   19.5089 C   0  0  0  0  0  0  0  0  0  0  0  0
    9.4210  -17.5404   21.1289 C   0  0  2  0  0  0  0  0  0  0  0  0
    8.5499  -17.6273   19.9999 N   0  0  0  0  0  0  0  0  0  0  0  0
    8.7941  -16.9768   22.3290 C   0  0  0  0  0  0  0  0  0  0  0  0
    8.2721  -15.8438   22.2708 O   0  0  0  0  0  0  0  0  0  0  0  0
    7.9207  -19.1642   25.8612 O   0  0  0  0  0  0  0  0  0  0  0  0
    7.3143  -17.9464   25.5706 C   0  0  0  0  0  0  0  0  0  0  0  0
    8.2355  -17.0428   24.7836 C   0  0  2  0  0  0  0  0  0  0  0  0
    8.7385  -17.6537   23.5931 N   0  0  0  0  0  0  0  0  0  0  0  0
    9.3701  -16.6934   25.6700 C   0  0  0  0  0  0  0  0  0  0  0  0
   10.4631  -17.2586   25.5231 O   0  0  0  0  0  0  0  0  0  0  0  0
    8.9543  -13.9219   29.0279 C   0  0  0  0  0  0  0  0  0  0  0  0
   10.1424  -13.9774   28.1090 C   0  0  2  0  0  0  0  0  0  0  0  0
    9.9551  -12.9833   27.0055 C   0  0  0  0  0  0  0  0  0  0  0  0
   10.3702  -15.3849   27.5746 C   0  0  2  0  0  0  0  0  0  0  0  0
    9.2672  -15.7212   26.7037 N   0  0  0  0  0  0  0  0  0  0  0  0
   10.5389  -16.3696   28.6673 C   0  0  0  0  0  0  0  0  0  0  0  0
   11.6641  -16.3651   29.4474 O   0  0  0  0  0  0  0  0  0  0  0  0
    9.6474  -17.2235   28.8914 O   0  0  0  0  0  0  0  0  0  0  0  0
  2  1  1  1
  2  4  1  0
  3  2  1  0
  4  5  1  6
  6  4  1  0
  7  6  2  0
  8  9  1  0
 10  9  1  1
 10 11  1  0
 10 12  1  0
 11  6  1  0
 12 18  1  0
 12 13  2  0
 15 14  1  1
 16 15  1  0
 17 15  1  0
 17 18  1  1
 19 17  1  0
 19 20  1  0
 21 19  2  0
M  END
$$$$
