VLC.pdb
     RDKit          3D

 22 21  0  0  1  0  0  0  0  0999 V2000
    6.2378  -21.3912   24.9141 C   0  0  0  0  0  0  0  0  0  0  0  0
    6.9207  -20.0646   24.7611 C   0  0  2  0  0  0  0  0  0  0  0  0
    7.6794  -19.7658   26.0374 C   0  0  0  0  0  0  0  0  0  0  0  0
    5.9865  -18.9471   24.3937 C   0  0  2  0  0  0  0  0  0  0  0  0
    5.3471  -19.3142   23.1447 N   0  0  0  0  0  0  0  0  0  0  0  0
    6.6495  -17.6510   24.2390 C   0  0  0  0  0  0  0  0  0  0  0  0
    7.4170  -17.3464   23.2904 O   0  0  0  0  0  0  0  0  0  0  0  0
    6.3416  -12.1893   27.0607 C   0  0  0  0  0  0  0  0  0  0  0  0
    7.1441  -13.0162   26.0201 C   0  0  2  0  0  0  0  0  0  0  0  0
    7.1602  -12.1971   24.7697 C   0  0  0  0  0  0  0  0  0  0  0  0
    6.4555  -14.3169   25.9279 C   0  0  0  0  0  0  0  0  0  0  0  0
    7.1657  -15.3276   25.0957 C   0  0  2  0  0  0  0  0  0  0  0  0
    6.4422  -16.6299   25.2052 N   0  0  0  0  0  0  0  0  0  0  0  0
    8.5547  -15.6229   25.4578 C   0  0  0  0  0  0  0  0  0  0  0  0
    8.8247  -15.9497   26.6417 O   0  0  0  0  0  0  0  0  0  0  0  0
    9.6653  -15.5803   24.5779 N   0  0  0  0  0  0  0  0  0  0  0  0
   10.9933  -16.0243   24.9844 C   0  0  1  0  0  0  0  0  0  0  0  0
   10.9031  -17.4984   25.3186 C   0  0  0  0  0  0  0  0  0  0  0  0
   12.5326  -18.1454   25.7752 S   0  0  0  0  0  0  0  0  0  0  0  0
   11.9261  -15.8787   23.8417 C   0  0  0  0  0  0  0  0  0  0  0  0
   13.1668  -15.9484   24.0315 O   0  0  0  0  0  0  0  0  0  0  0  0
   11.4544  -15.6659   22.5593 O   0  0  0  0  0  0  0  0  0  0  0  0
  2  1  1  1
  2  4  1  0
  2  3  1  0
  4  6  1  0
  4  5  1  6
  6  7  2  0
  9  8  1  1
  9 11  1  0
 10  9  1  0
 12 11  1  1
 12 14  1  0
 13 12  1  0
 13  6  1  0
 14 16  1  0
 15 14  2  0
 16 17  1  0
 17 18  1  6
 18 19  1  0
 20 17  1  0
 21 20  2  0
 22 20  1  0
M  END
$$$$
