VLC.pdb
     RDKit          3D

 22 21  0  0  1  0  0  0  0  0999 V2000
    9.8158  -18.7049   22.5409 C   0  0  0  0  0  0  0  0  0  0  0  0
    8.4765  -18.2514   22.0406 C   0  0  2  0  0  0  0  0  0  0  0  0
    8.0864  -19.1184   20.8616 C   0  0  0  0  0  0  0  0  0  0  0  0
    8.4268  -16.7897   21.6978 C   0  0  2  0  0  0  0  0  0  0  0  0
    9.3873  -16.5645   20.6345 N   0  0  0  0  0  0  0  0  0  0  0  0
    8.7335  -15.9086   22.8260 C   0  0  0  0  0  0  0  0  0  0  0  0
    9.8920  -15.5611   23.1706 O   0  0  0  0  0  0  0  0  0  0  0  0
    5.4979  -12.3474   26.6561 C   0  0  0  0  0  0  0  0  0  0  0  0
    6.9003  -12.9663   26.4089 C   0  0  2  0  0  0  0  0  0  0  0  0
    7.8550  -11.8166   26.3705 C   0  0  0  0  0  0  0  0  0  0  0  0
    6.7789  -13.7431   25.1614 C   0  0  0  0  0  0  0  0  0  0  0  0
    7.9824  -14.5539   24.8258 C   0  0  2  0  0  0  0  0  0  0  0  0
    7.6793  -15.3820   23.6201 N   0  0  0  0  0  0  0  0  0  0  0  0
    8.4441  -15.5026   25.8428 C   0  0  0  0  0  0  0  0  0  0  0  0
    7.6659  -16.4086   26.2363 O   0  0  0  0  0  0  0  0  0  0  0  0
    9.7260  -15.5067   26.4481 N   0  0  0  0  0  0  0  0  0  0  0  0
   10.1223  -16.5222   27.4164 C   0  0  1  0  0  0  0  0  0  0  0  0
   10.2728  -17.8327   26.6728 C   0  0  0  0  0  0  0  0  0  0  0  0
   10.1477  -19.2297   27.8196 S   0  0  0  0  0  0  0  0  0  0  0  0
   11.4481  -16.1688   27.9772 C   0  0  0  0  0  0  0  0  0  0  0  0
   12.0949  -15.2031   27.4984 O   0  0  0  0  0  0  0  0  0  0  0  0
   11.9926  -16.8869   29.0261 O   0  0  0  0  0  0  0  0  0  0  0  0
  2  1  1  6
  2  4  1  0
  2  3  1  0
  4  6  1  0
  4  5  1  6
  6  7  2  0
  9  8  1  6
  9 11  1  0
 10  9  1  0
 12 11  1  1
 12 14  1  0
 13 12  1  0
 13  6  1  0
 14 16  1  0
 15 14  2  0
 16 17  1  0
 17 18  1  6
 18 19  1  0
 20 17  1  0
 21 20  2  0
 22 20  1  0
M  END
$$$$
