VLC.pdb
     RDKit          3D

 22 21  0  0  1  0  0  0  0  0999 V2000
    8.8271  -18.3725   21.2976 C   0  0  0  0  0  0  0  0  0  0  0  0
    7.7593  -17.3998   20.8934 C   0  0  2  0  0  0  0  0  0  0  0  0
    7.2179  -17.8165   19.5416 C   0  0  0  0  0  0  0  0  0  0  0  0
    8.2187  -15.9697   20.8928 C   0  0  2  0  0  0  0  0  0  0  0  0
    9.3195  -15.8720   19.9535 N   0  0  0  0  0  0  0  0  0  0  0  0
    8.6542  -15.4896   22.2055 C   0  0  0  0  0  0  0  0  0  0  0  0
    9.8283  -15.5765   22.6479 O   0  0  0  0  0  0  0  0  0  0  0  0
    6.0043  -12.3992   26.8366 C   0  0  0  0  0  0  0  0  0  0  0  0
    7.2960  -13.1438   26.4033 C   0  0  2  0  0  0  0  0  0  0  0  0
    8.4193  -12.1850   26.6345 C   0  0  0  0  0  0  0  0  0  0  0  0
    7.0728  -13.5470   25.0025 C   0  0  0  0  0  0  0  0  0  0  0  0
    8.1410  -14.4187   24.4389 C   0  0  2  0  0  0  0  0  0  0  0  0
    7.7191  -14.8730   23.0800 N   0  0  0  0  0  0  0  0  0  0  0  0
    8.4521  -15.6444   25.1795 C   0  0  0  0  0  0  0  0  0  0  0  0
    7.5969  -16.5649   25.2309 O   0  0  0  0  0  0  0  0  0  0  0  0
    9.6637  -15.9106   25.8656 N   0  0  0  0  0  0  0  0  0  0  0  0
    9.8786  -17.1478   26.6066 C   0  0  1  0  0  0  0  0  0  0  0  0
   10.9335  -17.9472   25.8709 C   0  0  0  0  0  0  0  0  0  0  0  0
   11.4556  -19.3708   26.8623 S   0  0  0  0  0  0  0  0  0  0  0  0
   10.4158  -16.8237   27.9496 C   0  0  0  0  0  0  0  0  0  0  0  0
   10.8669  -15.6741   28.1844 O   0  0  0  0  0  0  0  0  0  0  0  0
   10.4309  -17.7694   28.9585 O   0  0  0  0  0  0  0  0  0  0  0  0
  2  1  1  6
  2  4  1  0
  2  3  1  0
  4  6  1  0
  4  5  1  6
  6  7  2  0
  9  8  1  6
  9 11  1  0
 10  9  1  0
 12 11  1  1
 12 14  1  0
 13 12  1  0
 13  6  1  0
 14 16  1  0
 15 14  2  0
 16 17  1  0
 17 18  1  6
 18 19  1  0
 20 17  1  0
 21 20  2  0
 22 20  1  0
M  END
$$$$
