VLC.pdb
     RDKit          3D

 22 21  0  0  1  0  0  0  0  0999 V2000
    8.3237  -17.0350   19.1755 C   0  0  0  0  0  0  0  0  0  0  0  0
    8.8538  -16.1315   20.2490 C   0  0  2  0  0  0  0  0  0  0  0  0
   10.3051  -15.8240   19.9434 C   0  0  0  0  0  0  0  0  0  0  0  0
    8.6810  -16.6811   21.6362 C   0  0  2  0  0  0  0  0  0  0  0  0
    7.3064  -17.1288   21.7532 N   0  0  0  0  0  0  0  0  0  0  0  0
    8.9695  -15.7119   22.6948 C   0  0  0  0  0  0  0  0  0  0  0  0
   10.0810  -15.1500   22.8696 O   0  0  0  0  0  0  0  0  0  0  0  0
    5.7996  -12.3194   26.6760 C   0  0  0  0  0  0  0  0  0  0  0  0
    7.2259  -12.8224   26.3249 C   0  0  2  0  0  0  0  0  0  0  0  0
    8.0582  -11.5954   26.1341 C   0  0  0  0  0  0  0  0  0  0  0  0
    7.0645  -13.6810   25.1370 C   0  0  0  0  0  0  0  0  0  0  0  0
    8.2720  -14.4822   24.7924 C   0  0  2  0  0  0  0  0  0  0  0  0
    7.9519  -15.3468   23.6171 N   0  0  0  0  0  0  0  0  0  0  0  0
    8.7738  -15.3962   25.8221 C   0  0  0  0  0  0  0  0  0  0  0  0
    9.0996  -14.9361   26.9462 O   0  0  0  0  0  0  0  0  0  0  0  0
    8.9320  -16.7976   25.6775 N   0  0  0  0  0  0  0  0  0  0  0  0
    9.3521  -17.6480   26.7848 C   0  0  1  0  0  0  0  0  0  0  0  0
    8.4454  -18.8607   26.8030 C   0  0  0  0  0  0  0  0  0  0  0  0
    6.7181  -18.3638   26.5748 S   0  0  0  0  0  0  0  0  0  0  0  0
   10.7338  -18.1237   26.5362 C   0  0  0  0  0  0  0  0  0  0  0  0
   11.3579  -17.7337   25.5171 O   0  0  0  0  0  0  0  0  0  0  0  0
   11.3556  -18.9959   27.4109 O   0  0  0  0  0  0  0  0  0  0  0  0
  2  1  1  6
  2  4  1  0
  2  3  1  0
  4  6  1  0
  4  5  1  6
  6  7  2  0
  9  8  1  6
  9 11  1  0
 10  9  1  0
 12 11  1  1
 12 14  1  0
 13 12  1  0
 13  6  1  0
 14 16  1  0
 15 14  2  0
 16 17  1  0
 17 18  1  6
 18 19  1  0
 20 17  1  0
 21 20  2  0
 22 20  1  0
M  END
$$$$
