VLC.pdb
     RDKit          3D

 22 21  0  0  1  0  0  0  0  0999 V2000
    5.8847  -21.7010   24.8854 C   0  0  0  0  0  0  0  0  0  0  0  0
    6.5205  -20.3803   24.5674 C   0  0  2  0  0  0  0  0  0  0  0  0
    7.7495  -20.2179   25.4375 C   0  0  0  0  0  0  0  0  0  0  0  0
    5.5834  -19.2142   24.7037 C   0  0  2  0  0  0  0  0  0  0  0  0
    4.4500  -19.4696   23.8355 N   0  0  0  0  0  0  0  0  0  0  0  0
    6.1872  -17.9280   24.3508 C   0  0  0  0  0  0  0  0  0  0  0  0
    6.4759  -17.5678   23.1810 O   0  0  0  0  0  0  0  0  0  0  0  0
    7.2924  -12.6538   27.3039 C   0  0  0  0  0  0  0  0  0  0  0  0
    7.5003  -13.3989   25.9578 C   0  0  2  0  0  0  0  0  0  0  0  0
    6.9322  -12.5055   24.9024 C   0  0  0  0  0  0  0  0  0  0  0  0
    6.8369  -14.7059   26.1190 C   0  0  0  0  0  0  0  0  0  0  0  0
    7.1199  -15.6752   25.0240 C   0  0  2  0  0  0  0  0  0  0  0  0
    6.4877  -16.9837   25.3693 N   0  0  0  0  0  0  0  0  0  0  0  0
    8.5287  -15.9814   24.7611 C   0  0  0  0  0  0  0  0  0  0  0  0
    9.1729  -16.6715   25.5919 O   0  0  0  0  0  0  0  0  0  0  0  0
    9.2660  -15.5681   23.6230 N   0  0  0  0  0  0  0  0  0  0  0  0
   10.5751  -16.1252   23.3038 C   0  0  1  0  0  0  0  0  0  0  0  0
   10.9492  -15.6536   21.9143 C   0  0  0  0  0  0  0  0  0  0  0  0
   12.6216  -16.2041   21.4874 S   0  0  0  0  0  0  0  0  0  0  0  0
   11.5792  -15.5808   24.2487 C   0  0  0  0  0  0  0  0  0  0  0  0
   11.3706  -14.4814   24.8215 O   0  0  0  0  0  0  0  0  0  0  0  0
   12.7514  -16.2645   24.5149 O   0  0  0  0  0  0  0  0  0  0  0  0
  2  1  1  1
  2  4  1  0
  2  3  1  0
  4  6  1  0
  4  5  1  6
  6  7  2  0
  9  8  1  1
  9 11  1  0
 10  9  1  0
 12 11  1  1
 12 14  1  0
 13 12  1  0
 13  6  1  0
 14 16  1  0
 15 14  2  0
 16 17  1  0
 17 18  1  6
 18 19  1  0
 20 17  1  0
 21 20  2  0
 22 20  1  0
M  END
$$$$
