VLC.pdb
     RDKit          3D

 22 21  0  0  1  0  0  0  0  0999 V2000
    7.7645  -18.6985   19.7712 C   0  0  0  0  0  0  0  0  0  0  0  0
    8.1537  -18.0846   21.0832 C   0  0  2  0  0  0  0  0  0  0  0  0
    7.2858  -18.6848   22.1697 C   0  0  0  0  0  0  0  0  0  0  0  0
    8.0913  -16.5837   21.0860 C   0  0  2  0  0  0  0  0  0  0  0  0
    8.9337  -16.1163   20.0017 N   0  0  0  0  0  0  0  0  0  0  0  0
    8.5341  -15.9774   22.3429 C   0  0  0  0  0  0  0  0  0  0  0  0
    9.7230  -15.9627   22.7528 O   0  0  0  0  0  0  0  0  0  0  0  0
    5.9396  -12.4255   26.6511 C   0  0  0  0  0  0  0  0  0  0  0  0
    7.2148  -13.2389   26.3005 C   0  0  2  0  0  0  0  0  0  0  0  0
    8.3553  -12.2778   26.4021 C   0  0  0  0  0  0  0  0  0  0  0  0
    6.9699  -13.8067   24.9618 C   0  0  0  0  0  0  0  0  0  0  0  0
    8.0233  -14.7508   24.4954 C   0  0  2  0  0  0  0  0  0  0  0  0
    7.5888  -15.3473   23.1967 N   0  0  0  0  0  0  0  0  0  0  0  0
    8.3207  -15.8910   25.3667 C   0  0  0  0  0  0  0  0  0  0  0  0
    7.4276  -16.7499   25.5809 O   0  0  0  0  0  0  0  0  0  0  0  0
    9.5581  -16.1365   26.0134 N   0  0  0  0  0  0  0  0  0  0  0  0
    9.8006  -17.3479   26.7877 C   0  0  1  0  0  0  0  0  0  0  0  0
   10.8419  -18.1639   26.0509 C   0  0  0  0  0  0  0  0  0  0  0  0
   11.3543  -19.5866   27.0487 S   0  0  0  0  0  0  0  0  0  0  0  0
   10.3697  -16.9775   28.1053 C   0  0  0  0  0  0  0  0  0  0  0  0
   10.4150  -17.8271   29.0306 O   0  0  0  0  0  0  0  0  0  0  0  0
   10.8563  -15.7042   28.3390 O   0  0  0  0  0  0  0  0  0  0  0  0
  2  1  1  6
  2  4  1  0
  2  3  1  0
  4  6  1  0
  4  5  1  6
  6  7  2  0
  9  8  1  6
  9 11  1  0
 10  9  1  0
 12 11  1  1
 12 14  1  0
 13 12  1  0
 13  6  1  0
 14 16  1  0
 15 14  2  0
 16 17  1  0
 17 18  1  6
 18 19  1  0
 20 17  1  0
 21 20  2  0
 22 20  1  0
M  END
$$$$
