VLC.pdb
     RDKit          3D

 22 21  0  0  1  0  0  0  0  0999 V2000
    7.2040  -17.1362   18.9590 C   0  0  0  0  0  0  0  0  0  0  0  0
    7.5739  -16.8485   20.3838 C   0  0  2  0  0  0  0  0  0  0  0  0
    6.4773  -17.3832   21.2812 C   0  0  0  0  0  0  0  0  0  0  0  0
    7.8535  -15.3968   20.6503 C   0  0  2  0  0  0  0  0  0  0  0  0
    8.9013  -14.9857   19.7355 N   0  0  0  0  0  0  0  0  0  0  0  0
    8.2712  -15.1195   22.0258 C   0  0  0  0  0  0  0  0  0  0  0  0
    9.3798  -15.4496   22.5193 O   0  0  0  0  0  0  0  0  0  0  0  0
    5.8449  -12.0233   26.7801 C   0  0  0  0  0  0  0  0  0  0  0  0
    7.0843  -12.8306   26.3080 C   0  0  2  0  0  0  0  0  0  0  0  0
    8.2668  -11.9514   26.5600 C   0  0  0  0  0  0  0  0  0  0  0  0
    6.8248  -13.1703   24.8968 C   0  0  0  0  0  0  0  0  0  0  0  0
    7.8337  -14.0839   24.2918 C   0  0  2  0  0  0  0  0  0  0  0  0
    7.3950  -14.4294   22.9063 N   0  0  0  0  0  0  0  0  0  0  0  0
    8.0478  -15.3686   24.9635 C   0  0  0  0  0  0  0  0  0  0  0  0
    7.1337  -16.2320   24.9441 O   0  0  0  0  0  0  0  0  0  0  0  0
    9.2239  -15.7541   25.6548 N   0  0  0  0  0  0  0  0  0  0  0  0
    9.3856  -17.0858   26.2259 C   0  0  1  0  0  0  0  0  0  0  0  0
   10.1218  -17.9351   25.2112 C   0  0  0  0  0  0  0  0  0  0  0  0
   10.6266  -19.5102   25.9503 S   0  0  0  0  0  0  0  0  0  0  0  0
   10.2349  -16.9959   27.4375 C   0  0  0  0  0  0  0  0  0  0  0  0
   10.9865  -16.0023   27.6047 O   0  0  0  0  0  0  0  0  0  0  0  0
   10.2166  -17.9925   28.3961 O   0  0  0  0  0  0  0  0  0  0  0  0
  2  1  1  6
  2  4  1  0
  2  3  1  0
  4  6  1  0
  4  5  1  6
  6  7  2  0
  9  8  1  6
  9 11  1  0
 10  9  1  0
 12 11  1  1
 12 14  1  0
 13 12  1  0
 13  6  1  0
 14 16  1  0
 15 14  2  0
 16 17  1  0
 17 18  1  6
 18 19  1  0
 20 17  1  0
 21 20  2  0
 22 20  1  0
M  END
$$$$
