VLC.pdb
     RDKit          3D

 22 21  0  0  1  0  0  0  0  0999 V2000
    8.8070  -19.7314   24.9143 C   0  0  0  0  0  0  0  0  0  0  0  0
    7.4525  -19.2468   25.3387 C   0  0  2  0  0  0  0  0  0  0  0  0
    6.5277  -20.4415   25.4460 C   0  0  0  0  0  0  0  0  0  0  0  0
    6.8868  -18.1833   24.4412 C   0  0  2  0  0  0  0  0  0  0  0  0
    6.7769  -18.7553   23.1129 N   0  0  0  0  0  0  0  0  0  0  0  0
    7.7001  -16.9674   24.3823 C   0  0  0  0  0  0  0  0  0  0  0  0
    8.6164  -16.7569   23.5469 O   0  0  0  0  0  0  0  0  0  0  0  0
    6.6233  -12.4749   24.1692 C   0  0  0  0  0  0  0  0  0  0  0  0
    6.3441  -13.3020   25.4532 C   0  0  2  0  0  0  0  0  0  0  0  0
    5.4500  -12.4549   26.3004 C   0  0  0  0  0  0  0  0  0  0  0  0
    7.6682  -13.6103   26.0244 C   0  0  0  0  0  0  0  0  0  0  0  0
    8.3800  -14.7311   25.3493 C   0  0  2  0  0  0  0  0  0  0  0  0
    7.4759  -15.9197   25.3158 N   0  0  0  0  0  0  0  0  0  0  0  0
    9.6173  -15.2014   25.9780 C   0  0  0  0  0  0  0  0  0  0  0  0
   10.7206  -14.9411   25.4336 O   0  0  0  0  0  0  0  0  0  0  0  0
    9.7020  -15.9435   27.1830 N   0  0  0  0  0  0  0  0  0  0  0  0
   10.9756  -16.2097   27.8409 C   0  0  1  0  0  0  0  0  0  0  0  0
   10.8351  -15.8088   29.2943 C   0  0  0  0  0  0  0  0  0  0  0  0
   10.0903  -14.1627   29.4282 S   0  0  0  0  0  0  0  0  0  0  0  0
   11.2489  -17.6661   27.8009 C   0  0  0  0  0  0  0  0  0  0  0  0
   10.4245  -18.4447   27.2585 O   0  0  0  0  0  0  0  0  0  0  0  0
   12.4034  -18.1900   28.3534 O   0  0  0  0  0  0  0  0  0  0  0  0
  2  1  1  6
  2  4  1  0
  2  3  1  0
  4  6  1  0
  4  5  1  6
  6  7  2  0
  9  8  1  6
  9 11  1  0
 10  9  1  0
 12 11  1  1
 12 14  1  0
 13 12  1  0
 13  6  1  0
 14 16  1  0
 15 14  2  0
 16 17  1  0
 17 18  1  1
 18 19  1  0
 20 17  1  0
 21 20  2  0
 22 20  1  0
M  END
$$$$
