VLC.pdb
     RDKit          3D

 22 21  0  0  1  0  0  0  0  0999 V2000
    6.1699  -17.8311   19.4968 C   0  0  0  0  0  0  0  0  0  0  0  0
    7.0011  -16.7330   20.0908 C   0  0  2  0  0  0  0  0  0  0  0  0
    8.0371  -16.3102   19.0700 C   0  0  0  0  0  0  0  0  0  0  0  0
    7.6307  -17.0998   21.4044 C   0  0  2  0  0  0  0  0  0  0  0  0
    6.6000  -17.7153   22.2183 N   0  0  0  0  0  0  0  0  0  0  0  0
    8.2028  -15.9597   22.1229 C   0  0  0  0  0  0  0  0  0  0  0  0
    9.1517  -15.2494   21.7024 O   0  0  0  0  0  0  0  0  0  0  0  0
    5.9380  -13.3095   26.7875 C   0  0  0  0  0  0  0  0  0  0  0  0
    7.3571  -13.2973   26.1577 C   0  0  2  0  0  0  0  0  0  0  0  0
    7.9153  -11.9376   26.4306 C   0  0  0  0  0  0  0  0  0  0  0  0
    7.1654  -13.6403   24.7364 C   0  0  0  0  0  0  0  0  0  0  0  0
    8.2726  -14.4425   24.1457 C   0  0  2  0  0  0  0  0  0  0  0  0
    7.6821  -15.5891   23.3921 N   0  0  0  0  0  0  0  0  0  0  0  0
    9.2258  -15.0430   25.0830 C   0  0  0  0  0  0  0  0  0  0  0  0
    9.8661  -14.2990   25.8691 O   0  0  0  0  0  0  0  0  0  0  0  0
    9.5078  -16.4272   25.2019 N   0  0  0  0  0  0  0  0  0  0  0  0
   10.5851  -16.9285   26.0468 C   0  0  1  0  0  0  0  0  0  0  0  0
   10.0106  -18.0197   26.9255 C   0  0  0  0  0  0  0  0  0  0  0  0
    9.2110  -17.3030   28.3847 S   0  0  0  0  0  0  0  0  0  0  0  0
   11.6286  -17.5427   25.1917 C   0  0  0  0  0  0  0  0  0  0  0  0
   11.4675  -17.5969   23.9462 O   0  0  0  0  0  0  0  0  0  0  0  0
   12.7862  -18.0621   25.7419 O   0  0  0  0  0  0  0  0  0  0  0  0
  2  1  1  6
  2  4  1  0
  2  3  1  0
  4  6  1  0
  4  5  1  1
  6  7  2  0
  9  8  1  1
  9 11  1  0
 10  9  1  0
 12 11  1  1
 12 14  1  0
 13 12  1  0
 13  6  1  0
 14 16  1  0
 15 14  2  0
 16 17  1  0
 17 18  1  1
 18 19  1  0
 20 17  1  0
 21 20  2  0
 22 20  1  0
M  END
$$$$
