GQY.pdb
     RDKit          3D

 26 26  0  0  1  0  0  0  0  0999 V2000
   18.4781  -12.4536  -16.7882 N   0  0  0  0  0  0  0  0  0  0  0  0
   18.1304  -11.3708  -15.8745 C   0  0  0  0  0  0  0  0  0  0  0  0
   19.3966  -10.6899  -15.4069 C   0  0  0  0  0  0  0  0  0  0  0  0
   19.3656   -9.9621  -14.3859 O   0  0  0  0  0  0  0  0  0  0  0  0
   25.5358  -12.3667  -16.8087 N   0  0  0  0  0  0  0  0  0  0  0  0
   25.5496  -11.2497  -15.9240 C   0  0  0  0  0  0  0  0  0  0  0  0
   26.6637  -10.9089  -15.4701 O   0  0  0  0  0  0  0  0  0  0  0  0
   24.3290  -10.5155  -15.5485 C   0  0  0  0  0  0  0  0  0  0  0  0
   23.0720  -11.0628  -16.1424 C   0  0  0  0  0  0  0  0  0  0  0  0
   21.8778  -10.2554  -15.7915 C   0  0  2  0  0  0  0  0  0  0  0  0
   20.6136  -10.8644  -16.1080 N   0  0  0  0  0  0  0  0  0  0  0  0
   21.9815   -8.8250  -16.2045 C   0  0  0  0  0  0  0  0  0  0  0  0
   21.9217   -8.5193  -17.3934 O   0  0  0  0  0  0  0  0  0  0  0  0
   16.3421   -5.7574  -18.3787 O   0  0  0  0  0  0  0  0  0  0  0  0
   17.4762   -5.7466  -17.5678 C   0  0  0  0  0  0  0  0  0  0  0  0
   17.6841   -6.7153  -16.6110 C   0  0  0  0  0  0  0  0  0  0  0  0
   18.8180   -6.6903  -15.8123 C   0  0  0  0  0  0  0  0  0  0  0  0
   19.7800   -5.7110  -15.9325 C   0  0  0  0  0  0  0  0  0  0  0  0
   20.9962   -5.6273  -15.1127 C   0  0  0  0  0  0  0  0  0  0  0  0
   22.1733   -6.3749  -15.6670 C   0  0  2  0  0  0  0  0  0  0  0  0
   22.1506   -7.7796  -15.2561 N   0  0  0  0  0  0  0  0  0  0  0  0
   23.4838   -5.7705  -15.4019 C   0  0  0  0  0  0  0  0  0  0  0  0
   24.3950   -6.4371  -14.8889 O   0  0  0  0  0  0  0  0  0  0  0  0
   19.5546   -4.7490  -16.8965 C   0  0  0  0  0  0  0  0  0  0  0  0
   18.4304   -4.7616  -17.6985 C   0  0  0  0  0  0  0  0  0  0  0  0
   23.6952   -4.4534  -15.7280 O   0  0  0  0  0  0  0  0  0  0  0  0
  2  3  1  0
  2  1  1  0
  3  4  2  0
  5  6  1  0
  6  8  1  0
  6  7  2  0
  8  9  1  0
 10  9  1  6
 10 12  1  0
 11 10  1  0
 11  3  1  0
 12 21  1  0
 13 12  2  0
 15 14  1  0
 16 15  2  0
 17 16  1  0
 18 17  2  0
 18 24  1  0
 19 18  1  0
 20 19  1  1
 21 20  1  0
 22 20  1  0
 23 22  2  0
 24 25  2  0
 25 15  1  0
 26 22  1  0
M  END
$$$$
