GQY.pdb
     RDKit          3D

 26 26  0  0  1  0  0  0  0  0999 V2000
   18.4322  -12.7164  -15.7116 N   0  0  0  0  0  0  0  0  0  0  0  0
   17.9087  -11.5376  -15.0300 C   0  0  0  0  0  0  0  0  0  0  0  0
   18.6534  -10.3136  -15.5123 C   0  0  0  0  0  0  0  0  0  0  0  0
   19.8685  -10.4069  -15.8089 O   0  0  0  0  0  0  0  0  0  0  0  0
   16.4585   -9.7566  -19.4716 N   0  0  0  0  0  0  0  0  0  0  0  0
   16.4780   -8.5220  -18.7604 C   0  0  0  0  0  0  0  0  0  0  0  0
   15.3715   -8.0697  -18.3935 O   0  0  0  0  0  0  0  0  0  0  0  0
   17.7236   -7.7961  -18.4581 C   0  0  0  0  0  0  0  0  0  0  0  0
   17.7368   -7.1206  -17.1256 C   0  0  0  0  0  0  0  0  0  0  0  0
   18.5654   -7.8428  -16.1291 C   0  0  2  0  0  0  0  0  0  0  0  0
   17.9953   -9.0662  -15.6317 N   0  0  0  0  0  0  0  0  0  0  0  0
   19.1255   -6.9589  -15.0650 C   0  0  0  0  0  0  0  0  0  0  0  0
   18.4665   -6.7107  -14.0577 O   0  0  0  0  0  0  0  0  0  0  0  0
   25.8919   -8.4977  -16.9920 O   0  0  0  0  0  0  0  0  0  0  0  0
   24.9608   -7.9510  -16.1099 C   0  0  0  0  0  0  0  0  0  0  0  0
   24.1395   -8.7506  -15.3463 C   0  0  0  0  0  0  0  0  0  0  0  0
   23.2184   -8.1909  -14.4731 C   0  0  0  0  0  0  0  0  0  0  0  0
   23.0792   -6.8278  -14.3265 C   0  0  0  0  0  0  0  0  0  0  0  0
   22.1190   -6.1766  -13.4253 C   0  0  0  0  0  0  0  0  0  0  0  0
   20.9603   -5.5215  -14.1183 C   0  0  2  0  0  0  0  0  0  0  0  0
   20.4193   -6.3799  -15.1734 N   0  0  0  0  0  0  0  0  0  0  0  0
   21.2125   -4.1661  -14.6207 C   0  0  0  0  0  0  0  0  0  0  0  0
   21.1137   -3.9120  -15.8304 O   0  0  0  0  0  0  0  0  0  0  0  0
   23.9106   -6.0426  -15.0997 C   0  0  0  0  0  0  0  0  0  0  0  0
   24.8320   -6.5863  -15.9729 C   0  0  0  0  0  0  0  0  0  0  0  0
   21.5607   -3.1752  -13.7361 O   0  0  0  0  0  0  0  0  0  0  0  0
  2  3  1  0
  2  1  1  0
  3  4  2  0
  5  6  1  0
  6  8  1  0
  6  7  2  0
  8  9  1  0
 10  9  1  1
 10 12  1  0
 11 10  1  0
 11  3  1  0
 12 21  1  0
 13 12  2  0
 15 14  1  0
 16 15  2  0
 17 16  1  0
 18 17  2  0
 18 24  1  0
 19 18  1  0
 20 19  1  6
 21 20  1  0
 22 20  1  0
 23 22  2  0
 24 25  2  0
 25 15  1  0
 26 22  1  0
M  END
$$$$
