GQY.pdb
     RDKit          3D

 26 26  0  0  1  0  0  0  0  0999 V2000
   27.0347  -35.6168   -8.3791 N   0  0  0  0  0  0  0  0  0  0  0  0
   28.0811  -35.0778   -7.5173 C   0  0  0  0  0  0  0  0  0  0  0  0
   27.6862  -35.2783   -6.0719 C   0  0  0  0  0  0  0  0  0  0  0  0
   26.4923  -35.5375   -5.7881 O   0  0  0  0  0  0  0  0  0  0  0  0
   31.7031  -35.9705   -0.9145 N   0  0  0  0  0  0  0  0  0  0  0  0
   30.3534  -36.0416   -0.4632 C   0  0  0  0  0  0  0  0  0  0  0  0
   30.1811  -36.3012    0.7478 O   0  0  0  0  0  0  0  0  0  0  0  0
   29.2021  -35.8229   -1.3557 C   0  0  0  0  0  0  0  0  0  0  0  0
   29.5644  -35.6053   -2.7888 C   0  0  0  0  0  0  0  0  0  0  0  0
   28.3927  -35.2437   -3.6239 C   0  0  2  0  0  0  0  0  0  0  0  0
   28.6474  -35.1762   -5.0380 N   0  0  0  0  0  0  0  0  0  0  0  0
   27.6150  -34.0861   -3.0924 C   0  0  0  0  0  0  0  0  0  0  0  0
   28.0862  -32.9519   -3.1384 O   0  0  0  0  0  0  0  0  0  0  0  0
   21.4120  -28.1920   -1.4475 O   0  0  0  0  0  0  0  0  0  0  0  0
   22.1718  -29.2918   -1.8435 C   0  0  0  0  0  0  0  0  0  0  0  0
   21.6957  -30.5778   -1.7138 C   0  0  0  0  0  0  0  0  0  0  0  0
   22.4644  -31.6614   -2.1128 C   0  0  0  0  0  0  0  0  0  0  0  0
   23.7239  -31.5104   -2.6510 C   0  0  0  0  0  0  0  0  0  0  0  0
   24.5871  -32.6173   -3.0847 C   0  0  0  0  0  0  0  0  0  0  0  0
   25.5533  -33.0985   -2.0423 C   0  0  2  0  0  0  0  0  0  0  0  0
   26.3226  -34.2475   -2.5225 N   0  0  0  0  0  0  0  0  0  0  0  0
   24.9715  -33.3696   -0.7228 C   0  0  0  0  0  0  0  0  0  0  0  0
   24.6622  -34.5245   -0.3938 O   0  0  0  0  0  0  0  0  0  0  0  0
   24.1842  -30.2147   -2.7733 C   0  0  0  0  0  0  0  0  0  0  0  0
   23.4299  -29.1268   -2.3802 C   0  0  0  0  0  0  0  0  0  0  0  0
   24.7711  -32.3288    0.1503 O   0  0  0  0  0  0  0  0  0  0  0  0
  2  3  1  0
  2  1  1  0
  3  4  2  0
  5  6  1  0
  6  8  1  0
  6  7  2  0
  8  9  1  0
 10  9  1  1
 10 12  1  0
 11 10  1  0
 11  3  1  0
 12 21  1  0
 13 12  2  0
 15 14  1  0
 16 15  2  0
 17 16  1  0
 18 17  2  0
 18 24  1  0
 19 18  1  0
 20 19  1  6
 21 20  1  0
 22 20  1  0
 23 22  2  0
 24 25  2  0
 25 15  1  0
 26 22  1  0
M  END
$$$$
