GQY.pdb
     RDKit          3D

 26 26  0  0  1  0  0  0  0  0999 V2000
   24.6980  -13.0796  -17.0193 N   0  0  0  0  0  0  0  0  0  0  0  0
   25.4431  -14.1364  -16.3437 C   0  0  0  0  0  0  0  0  0  0  0  0
   24.7871  -15.4677  -16.6305 C   0  0  0  0  0  0  0  0  0  0  0  0
   23.5402  -15.5731  -16.5449 O   0  0  0  0  0  0  0  0  0  0  0  0
   22.4481  -17.8208  -20.0785 N   0  0  0  0  0  0  0  0  0  0  0  0
   23.5938  -18.6505  -19.9070 C   0  0  0  0  0  0  0  0  0  0  0  0
   23.4058  -19.8850  -19.9727 O   0  0  0  0  0  0  0  0  0  0  0  0
   24.9417  -18.1078  -19.6652 C   0  0  0  0  0  0  0  0  0  0  0  0
   25.5940  -18.6077  -18.4175 C   0  0  0  0  0  0  0  0  0  0  0  0
   25.0826  -17.9342  -17.1984 C   0  0  2  0  0  0  0  0  0  0  0  0
   25.5637  -16.5942  -16.9930 N   0  0  0  0  0  0  0  0  0  0  0  0
   25.1341  -18.7903  -15.9770 C   0  0  0  0  0  0  0  0  0  0  0  0
   26.1465  -18.8128  -15.2805 O   0  0  0  0  0  0  0  0  0  0  0  0
   24.2881  -21.9427   -8.0620 O   0  0  0  0  0  0  0  0  0  0  0  0
   24.2852  -21.3230   -9.3109 C   0  0  0  0  0  0  0  0  0  0  0  0
   23.1123  -20.9188   -9.9093 C   0  0  0  0  0  0  0  0  0  0  0  0
   23.1267  -20.3034  -11.1524 C   0  0  0  0  0  0  0  0  0  0  0  0
   24.2960  -20.0681  -11.8423 C   0  0  0  0  0  0  0  0  0  0  0  0
   24.3748  -19.4283  -13.1625 C   0  0  0  0  0  0  0  0  0  0  0  0
   24.0481  -20.3338  -14.3136 C   0  0  2  0  0  0  0  0  0  0  0  0
   24.0343  -19.5985  -15.5792 N   0  0  0  0  0  0  0  0  0  0  0  0
   22.8286  -21.1346  -14.1574 C   0  0  0  0  0  0  0  0  0  0  0  0
   22.8462  -22.1934  -13.5121 O   0  0  0  0  0  0  0  0  0  0  0  0
   25.4612  -20.4798  -11.2271 C   0  0  0  0  0  0  0  0  0  0  0  0
   25.4617  -21.0935   -9.9900 C   0  0  0  0  0  0  0  0  0  0  0  0
   21.6605  -20.7004  -14.7344 O   0  0  0  0  0  0  0  0  0  0  0  0
  2  3  1  0
  2  1  1  0
  3  4  2  0
  5  6  1  0
  6  8  1  0
  6  7  2  0
  8  9  1  0
 10  9  1  6
 10 12  1  0
 11 10  1  0
 11  3  1  0
 12 21  1  0
 13 12  2  0
 15 14  1  0
 16 15  2  0
 17 16  1  0
 18 17  2  0
 18 24  1  0
 19 18  1  0
 20 19  1  1
 21 20  1  0
 22 20  1  0
 23 22  2  0
 24 25  2  0
 25 15  1  0
 26 22  1  0
M  END
$$$$
