GQY.pdb
     RDKit          3D

 26 26  0  0  1  0  0  0  0  0999 V2000
   30.1592  -21.8515  -17.8303 N   0  0  0  0  0  0  0  0  0  0  0  0
   29.1014  -22.6896  -17.2763 C   0  0  0  0  0  0  0  0  0  0  0  0
   27.8458  -21.8631  -17.1160 C   0  0  0  0  0  0  0  0  0  0  0  0
   27.8885  -20.6275  -17.3273 O   0  0  0  0  0  0  0  0  0  0  0  0
   22.3168  -18.9194  -17.3726 N   0  0  0  0  0  0  0  0  0  0  0  0
   23.0035  -20.0506  -17.9010 C   0  0  0  0  0  0  0  0  0  0  0  0
   23.5848  -19.8911  -18.9966 O   0  0  0  0  0  0  0  0  0  0  0  0
   23.0438  -21.3518  -17.2118 C   0  0  0  0  0  0  0  0  0  0  0  0
   24.2901  -22.1399  -17.4528 C   0  0  0  0  0  0  0  0  0  0  0  0
   25.3741  -21.7968  -16.4998 C   0  0  2  0  0  0  0  0  0  0  0  0
   26.6256  -22.4676  -16.7302 N   0  0  0  0  0  0  0  0  0  0  0  0
   24.9382  -21.8012  -15.0725 C   0  0  0  0  0  0  0  0  0  0  0  0
   25.0149  -22.8311  -14.4062 O   0  0  0  0  0  0  0  0  0  0  0  0
   30.0602  -21.3425  -11.0014 O   0  0  0  0  0  0  0  0  0  0  0  0
   28.7673  -20.9269  -11.3167 C   0  0  0  0  0  0  0  0  0  0  0  0
   28.5190  -20.1105  -12.3979 C   0  0  0  0  0  0  0  0  0  0  0  0
   27.2266  -19.7060  -12.6981 C   0  0  0  0  0  0  0  0  0  0  0  0
   26.1412  -20.0934  -11.9428 C   0  0  0  0  0  0  0  0  0  0  0  0
   24.7524  -19.6929  -12.2058 C   0  0  0  0  0  0  0  0  0  0  0  0
   23.9741  -20.6610  -13.0478 C   0  0  2  0  0  0  0  0  0  0  0  0
   24.4262  -20.6356  -14.4398 N   0  0  0  0  0  0  0  0  0  0  0  0
   22.5147  -20.5334  -12.9664 C   0  0  0  0  0  0  0  0  0  0  0  0
   21.9321  -20.6255  -11.8756 O   0  0  0  0  0  0  0  0  0  0  0  0
   26.4093  -20.9114  -10.8636 C   0  0  0  0  0  0  0  0  0  0  0  0
   27.6908  -21.3218  -10.5530 C   0  0  0  0  0  0  0  0  0  0  0  0
   21.7943  -20.3097  -14.1140 O   0  0  0  0  0  0  0  0  0  0  0  0
  2  3  1  0
  2  1  1  0
  3  4  2  0
  5  6  1  0
  6  8  1  0
  6  7  2  0
  8  9  1  0
 10  9  1  6
 10 12  1  0
 11 10  1  0
 11  3  1  0
 12 21  1  0
 13 12  2  0
 15 14  1  0
 16 15  2  0
 17 16  1  0
 18 17  2  0
 18 24  1  0
 19 18  1  0
 20 19  1  1
 21 20  1  0
 22 20  1  0
 23 22  2  0
 24 25  2  0
 25 15  1  0
 26 22  1  0
M  END
$$$$
