YEF.pdb
     RDKit          3D

 33 34  0  0  1  0  0  0  0  0999 V2000
   25.7363  -13.6625  -26.0796 O   0  0  0  0  0  0  0  0  0  0  0  0
   25.3619  -13.8598  -24.7432 C   0  0  0  0  0  0  0  0  0  0  0  0
   24.9547  -15.0795  -24.2706 C   0  0  0  0  0  0  0  0  0  0  0  0
   24.5912  -15.2539  -22.9566 C   0  0  0  0  0  0  0  0  0  0  0  0
   24.6189  -14.2017  -22.0425 C   0  0  0  0  0  0  0  0  0  0  0  0
   24.2274  -14.3803  -20.6187 C   0  0  0  0  0  0  0  0  0  0  0  0
   22.7568  -14.0354  -20.5183 C   0  0  2  0  0  0  0  0  0  0  0  0
   22.6588  -12.5916  -20.4229 N   0  0  0  0  0  0  0  0  0  0  0  0
   22.0961  -14.6455  -19.3640 C   0  0  0  0  0  0  0  0  0  0  0  0
   21.9768  -14.0162  -18.2821 O   0  0  0  0  0  0  0  0  0  0  0  0
   25.0305  -12.9788  -22.5298 C   0  0  0  0  0  0  0  0  0  0  0  0
   25.3915  -12.8118  -23.8411 C   0  0  0  0  0  0  0  0  0  0  0  0
   21.5735  -15.9706  -19.4463 N   0  0  0  0  0  0  0  0  0  0  0  0
   20.9709  -16.6623  -18.3424 C   0  0  1  0  0  0  0  0  0  0  0  0
   19.5825  -17.1315  -18.6238 C   0  0  0  0  0  0  0  0  0  0  0  0
   18.8399  -17.7677  -17.5132 C   0  0  0  0  0  0  0  0  0  0  0  0
   18.1697  -16.8493  -16.5761 C   0  0  0  0  0  0  0  0  0  0  0  0
   17.5569  -15.8057  -16.9424 O   0  0  0  0  0  0  0  0  0  0  0  0
   21.8096  -17.7060  -17.7289 C   0  0  0  0  0  0  0  0  0  0  0  0
   22.4468  -18.5377  -18.4608 O   0  0  0  0  0  0  0  0  0  0  0  0
   18.1664  -17.0716  -15.1958 O   0  0  0  0  0  0  0  0  0  0  0  0
   21.9779  -17.8699  -16.3399 N   0  0  0  0  0  0  0  0  0  0  0  0
   22.8325  -18.9278  -15.7790 C   0  0  1  0  0  0  0  0  0  0  0  0
   23.7922  -18.2316  -14.8003 C   0  0  0  0  0  0  0  0  0  0  0  0
   24.8820  -17.5399  -15.4910 C   0  0  0  0  0  0  0  0  0  0  0  0
   24.9380  -16.1491  -15.5515 C   0  0  0  0  0  0  0  0  0  0  0  0
   25.9715  -15.5011  -16.1877 C   0  0  0  0  0  0  0  0  0  0  0  0
   26.9995  -16.1895  -16.7950 C   0  0  0  0  0  0  0  0  0  0  0  0
   26.9442  -17.5646  -16.7349 C   0  0  0  0  0  0  0  0  0  0  0  0
   25.9180  -18.2244  -16.1027 C   0  0  0  0  0  0  0  0  0  0  0  0
   21.9799  -19.8241  -14.9879 C   0  0  0  0  0  0  0  0  0  0  0  0
   22.4655  -21.0023  -14.4084 O   0  0  0  0  0  0  0  0  0  0  0  0
   20.7699  -19.5377  -14.8179 O   0  0  0  0  0  0  0  0  0  0  0  0
  2  1  1  0
  3  2  2  0
  4  3  1  0
  5 11  1  0
  5  4  2  0
  6  5  1  0
  7  9  1  0
  7  6  1  0
  7  8  1  1
  9 10  2  0
 11 12  2  0
 12  2  1  0
 13 14  1  0
 13  9  1  0
 14 15  1  6
 16 15  1  0
 17 16  1  0
 17 18  2  0
 19 14  1  0
 20 19  2  0
 21 17  1  0
 22 19  1  0
 23 24  1  1
 23 22  1  0
 24 25  1  0
 25 30  2  0
 26 27  2  0
 26 25  1  0
 27 28  1  0
 28 29  2  0
 30 29  1  0
 31 23  1  0
 31 32  1  0
 33 31  2  0
M  END
$$$$
