YEF.pdb
     RDKit          3D

 33 34  0  0  1  0  0  0  0  0999 V2000
   25.2349  -23.7864  -15.6441 O   0  0  0  0  0  0  0  0  0  0  0  0
   25.9654  -24.8463  -16.1992 C   0  0  0  0  0  0  0  0  0  0  0  0
   25.7706  -26.1474  -15.8172 C   0  0  0  0  0  0  0  0  0  0  0  0
   26.4967  -27.1738  -16.3729 C   0  0  0  0  0  0  0  0  0  0  0  0
   27.4640  -26.9423  -17.3496 C   0  0  0  0  0  0  0  0  0  0  0  0
   28.2548  -28.0461  -17.9568 C   0  0  0  0  0  0  0  0  0  0  0  0
   29.3872  -28.3560  -17.0011 C   0  0  2  0  0  0  0  0  0  0  0  0
   30.3508  -27.2777  -17.1113 N   0  0  0  0  0  0  0  0  0  0  0  0
   30.0489  -29.6307  -17.2806 C   0  0  0  0  0  0  0  0  0  0  0  0
   30.8878  -29.7314  -18.2117 O   0  0  0  0  0  0  0  0  0  0  0  0
   27.6512  -25.6287  -17.7261 C   0  0  0  0  0  0  0  0  0  0  0  0
   26.9239  -24.6102  -17.1680 C   0  0  0  0  0  0  0  0  0  0  0  0
   29.7527  -30.7865  -16.4983 N   0  0  0  0  0  0  0  0  0  0  0  0
   30.1875  -32.1125  -16.8346 C   0  0  1  0  0  0  0  0  0  0  0  0
   30.1086  -33.0695  -15.6923 C   0  0  0  0  0  0  0  0  0  0  0  0
   30.5269  -34.4665  -15.9435 C   0  0  0  0  0  0  0  0  0  0  0  0
   31.6506  -34.9597  -15.1282 C   0  0  0  0  0  0  0  0  0  0  0  0
   32.2278  -34.2637  -14.2444 O   0  0  0  0  0  0  0  0  0  0  0  0
   29.6127  -32.6604  -18.0750 C   0  0  0  0  0  0  0  0  0  0  0  0
   28.3652  -32.5329  -18.3221 O   0  0  0  0  0  0  0  0  0  0  0  0
   32.1646  -36.2511  -15.2790 O   0  0  0  0  0  0  0  0  0  0  0  0
   30.3573  -33.3418  -19.0577 N   0  0  0  0  0  0  0  0  0  0  0  0
   29.7179  -33.9581  -20.2304 C   0  0  1  0  0  0  0  0  0  0  0  0
   30.5240  -33.4926  -21.4541 C   0  0  0  0  0  0  0  0  0  0  0  0
   30.0306  -34.0832  -22.6995 C   0  0  0  0  0  0  0  0  0  0  0  0
   28.9350  -33.5487  -23.3740 C   0  0  0  0  0  0  0  0  0  0  0  0
   28.4829  -34.0960  -24.5525 C   0  0  0  0  0  0  0  0  0  0  0  0
   29.0864  -35.1953  -25.1243 C   0  0  0  0  0  0  0  0  0  0  0  0
   30.1698  -35.7237  -24.4575 C   0  0  0  0  0  0  0  0  0  0  0  0
   30.6318  -35.1868  -23.2800 C   0  0  0  0  0  0  0  0  0  0  0  0
   29.8893  -35.4126  -20.1251 C   0  0  0  0  0  0  0  0  0  0  0  0
   29.0196  -36.3167  -20.7464 O   0  0  0  0  0  0  0  0  0  0  0  0
   30.8442  -35.8769  -19.4560 O   0  0  0  0  0  0  0  0  0  0  0  0
  2  1  1  0
  3  2  2  0
  4  3  1  0
  5 11  1  0
  5  4  2  0
  6  5  1  0
  7  9  1  0
  7  6  1  0
  7  8  1  6
  9 10  2  0
 11 12  2  0
 12  2  1  0
 13 14  1  0
 13  9  1  0
 14 15  1  1
 16 15  1  0
 17 16  1  0
 17 18  2  0
 19 14  1  0
 20 19  2  0
 21 17  1  0
 22 19  1  0
 23 24  1  6
 23 22  1  0
 24 25  1  0
 25 30  2  0
 26 27  2  0
 26 25  1  0
 27 28  1  0
 28 29  2  0
 30 29  1  0
 31 23  1  0
 31 32  1  0
 33 31  2  0
M  END
$$$$
