YEF.pdb
     RDKit          3D

 33 34  0  0  1  0  0  0  0  0999 V2000
   28.7816  -36.2189  -18.0150 O   0  0  0  0  0  0  0  0  0  0  0  0
   28.5679  -34.9363  -17.4912 C   0  0  0  0  0  0  0  0  0  0  0  0
   29.1051  -34.5358  -16.2963 C   0  0  0  0  0  0  0  0  0  0  0  0
   28.8844  -33.2737  -15.7986 C   0  0  0  0  0  0  0  0  0  0  0  0
   28.1056  -32.3417  -16.4828 C   0  0  0  0  0  0  0  0  0  0  0  0
   27.8609  -30.9738  -15.9524 C   0  0  0  0  0  0  0  0  0  0  0  0
   28.7010  -30.0230  -16.7782 C   0  0  2  0  0  0  0  0  0  0  0  0
   30.0888  -30.2632  -16.4321 N   0  0  0  0  0  0  0  0  0  0  0  0
   28.3785  -28.6145  -16.5470 C   0  0  0  0  0  0  0  0  0  0  0  0
   28.9351  -27.9686  -15.6231 O   0  0  0  0  0  0  0  0  0  0  0  0
   27.5701  -32.7562  -17.6843 C   0  0  0  0  0  0  0  0  0  0  0  0
   27.7940  -34.0160  -18.1749 C   0  0  0  0  0  0  0  0  0  0  0  0
   27.4227  -27.9468  -17.3694 N   0  0  0  0  0  0  0  0  0  0  0  0
   27.0162  -26.5837  -17.1771 C   0  0  1  0  0  0  0  0  0  0  0  0
   27.4243  -25.6807  -18.2929 C   0  0  0  0  0  0  0  0  0  0  0  0
   28.8658  -25.3758  -18.4304 C   0  0  0  0  0  0  0  0  0  0  0  0
   29.4317  -24.4657  -17.4194 C   0  0  0  0  0  0  0  0  0  0  0  0
   30.3442  -24.8030  -16.6117 O   0  0  0  0  0  0  0  0  0  0  0  0
   25.6076  -26.4031  -16.7868 C   0  0  0  0  0  0  0  0  0  0  0  0
   24.6882  -27.0968  -17.3409 O   0  0  0  0  0  0  0  0  0  0  0  0
   28.9908  -23.1462  -17.2808 O   0  0  0  0  0  0  0  0  0  0  0  0
   25.1695  -25.4902  -15.8074 N   0  0  0  0  0  0  0  0  0  0  0  0
   23.7650  -25.4282  -15.3742 C   0  0  1  0  0  0  0  0  0  0  0  0
   23.7734  -24.7830  -13.9788 C   0  0  0  0  0  0  0  0  0  0  0  0
   22.4214  -24.5646  -13.4616 C   0  0  0  0  0  0  0  0  0  0  0  0
   21.7042  -25.5878  -12.8451 C   0  0  0  0  0  0  0  0  0  0  0  0
   20.4399  -25.3759  -12.3458 C   0  0  0  0  0  0  0  0  0  0  0  0
   19.8199  -24.1478  -12.4287 C   0  0  0  0  0  0  0  0  0  0  0  0
   20.5290  -23.1361  -13.0380 C   0  0  0  0  0  0  0  0  0  0  0  0
   21.7924  -23.3340  -13.5407 C   0  0  0  0  0  0  0  0  0  0  0  0
   23.0561  -24.5090  -16.2734 C   0  0  0  0  0  0  0  0  0  0  0  0
   23.7282  -23.5889  -17.0869 O   0  0  0  0  0  0  0  0  0  0  0  0
   21.8024  -24.5362  -16.3242 O   0  0  0  0  0  0  0  0  0  0  0  0
  2  1  1  0
  3  2  2  0
  4  3  1  0
  5 11  1  0
  5  4  2  0
  6  5  1  0
  7  9  1  0
  7  6  1  0
  7  8  1  1
  9 10  2  0
 11 12  2  0
 12  2  1  0
 13 14  1  0
 13  9  1  0
 14 15  1  6
 16 15  1  0
 17 16  1  0
 17 18  2  0
 19 14  1  0
 20 19  2  0
 21 17  1  0
 22 19  1  0
 23 24  1  1
 23 22  1  0
 24 25  1  0
 25 30  2  0
 26 27  2  0
 26 25  1  0
 27 28  1  0
 28 29  2  0
 30 29  1  0
 31 23  1  0
 31 32  1  0
 33 31  2  0
M  END
$$$$
