YEF.pdb
     RDKit          3D

 33 34  0  0  1  0  0  0  0  0999 V2000
   15.9623  -17.8157  -16.6237 O   0  0  0  0  0  0  0  0  0  0  0  0
   17.0456  -18.3883  -15.9429 C   0  0  0  0  0  0  0  0  0  0  0  0
   18.3307  -18.3013  -16.4095 C   0  0  0  0  0  0  0  0  0  0  0  0
   19.3806  -18.8693  -15.7279 C   0  0  0  0  0  0  0  0  0  0  0  0
   19.1903  -19.5598  -14.5320 C   0  0  0  0  0  0  0  0  0  0  0  0
   20.3198  -20.1779  -13.7872 C   0  0  0  0  0  0  0  0  0  0  0  0
   20.8979  -21.2573  -14.6774 C   0  0  2  0  0  0  0  0  0  0  0  0
   20.0287  -22.4135  -14.5721 N   0  0  0  0  0  0  0  0  0  0  0  0
   22.2626  -21.6394  -14.3133 C   0  0  0  0  0  0  0  0  0  0  0  0
   22.5079  -22.1742  -13.2022 O   0  0  0  0  0  0  0  0  0  0  0  0
   17.8925  -19.6408  -14.0722 C   0  0  0  0  0  0  0  0  0  0  0  0
   16.8503  -19.0722  -14.7566 C   0  0  0  0  0  0  0  0  0  0  0  0
   23.3433  -21.4109  -15.2164 N   0  0  0  0  0  0  0  0  0  0  0  0
   24.7271  -21.5187  -14.8507 C   0  0  1  0  0  0  0  0  0  0  0  0
   25.6477  -21.5708  -16.0241 C   0  0  0  0  0  0  0  0  0  0  0  0
   27.1010  -21.6116  -15.7488 C   0  0  0  0  0  0  0  0  0  0  0  0
   27.9815  -21.6077  -16.9301 C   0  0  0  0  0  0  0  0  0  0  0  0
   27.5541  -21.5187  -18.1168 O   0  0  0  0  0  0  0  0  0  0  0  0
   25.1747  -20.5668  -13.8198 C   0  0  0  0  0  0  0  0  0  0  0  0
   24.9009  -19.3228  -13.9246 O   0  0  0  0  0  0  0  0  0  0  0  0
   29.3717  -21.7048  -16.8182 O   0  0  0  0  0  0  0  0  0  0  0  0
   25.9102  -20.9299  -12.6745 N   0  0  0  0  0  0  0  0  0  0  0  0
   26.3703  -19.9320  -11.6965 C   0  0  1  0  0  0  0  0  0  0  0  0
   27.0293  -20.7217  -10.5539 C   0  0  0  0  0  0  0  0  0  0  0  0
   28.3917  -21.1427  -10.8855 C   0  0  0  0  0  0  0  0  0  0  0  0
   29.5022  -20.4266  -10.4437 C   0  0  0  0  0  0  0  0  0  0  0  0
   30.7819  -20.8329  -10.7435 C   0  0  0  0  0  0  0  0  0  0  0  0
   31.0313  -21.9630  -11.4920 C   0  0  0  0  0  0  0  0  0  0  0  0
   29.9333  -22.6711  -11.9287 C   0  0  0  0  0  0  0  0  0  0  0  0
   28.6500  -22.2766  -11.6364 C   0  0  0  0  0  0  0  0  0  0  0  0
   27.4223  -19.1290  -12.3326 C   0  0  0  0  0  0  0  0  0  0  0  0
   27.6952  -17.8110  -11.9475 O   0  0  0  0  0  0  0  0  0  0  0  0
   28.1086  -19.6279  -13.2573 O   0  0  0  0  0  0  0  0  0  0  0  0
  2  1  1  0
  3  2  2  0
  4  3  1  0
  5 11  1  0
  5  4  2  0
  6  5  1  0
  7  9  1  0
  7  6  1  0
  7  8  1  1
  9 10  2  0
 11 12  2  0
 12  2  1  0
 13 14  1  0
 13  9  1  0
 14 15  1  6
 16 15  1  0
 17 16  1  0
 17 18  2  0
 19 14  1  0
 20 19  2  0
 21 17  1  0
 22 19  1  0
 23 24  1  1
 23 22  1  0
 24 25  1  0
 25 30  2  0
 26 27  2  0
 26 25  1  0
 27 28  1  0
 28 29  2  0
 30 29  1  0
 31 23  1  0
 31 32  1  0
 33 31  2  0
M  END
$$$$
