YEF.pdb
     RDKit          3D

 33 34  0  0  1  0  0  0  0  0999 V2000
   20.3850  -16.8448  -17.6900 O   0  0  0  0  0  0  0  0  0  0  0  0
   20.2943  -15.4462  -17.7178 C   0  0  0  0  0  0  0  0  0  0  0  0
   20.4313  -14.7277  -18.8762 C   0  0  0  0  0  0  0  0  0  0  0  0
   20.3393  -13.3562  -18.8839 C   0  0  0  0  0  0  0  0  0  0  0  0
   20.1026  -12.6309  -17.7172 C   0  0  0  0  0  0  0  0  0  0  0  0
   20.0015  -11.1469  -17.7153 C   0  0  0  0  0  0  0  0  0  0  0  0
   18.5610  -10.8026  -17.4019 C   0  0  2  0  0  0  0  0  0  0  0  0
   17.7502  -11.3095  -18.4923 N   0  0  0  0  0  0  0  0  0  0  0  0
   18.3285   -9.3660  -17.2493 C   0  0  0  0  0  0  0  0  0  0  0  0
   18.2450   -8.6159  -18.2548 O   0  0  0  0  0  0  0  0  0  0  0  0
   19.9664  -13.3649  -16.5575 C   0  0  0  0  0  0  0  0  0  0  0  0
   20.0593  -14.7321  -16.5568 C   0  0  0  0  0  0  0  0  0  0  0  0
   18.1921   -8.7890  -15.9516 N   0  0  0  0  0  0  0  0  0  0  0  0
   18.2122   -7.3763  -15.6987 C   0  0  1  0  0  0  0  0  0  0  0  0
   16.8589   -6.8003  -15.4457 C   0  0  0  0  0  0  0  0  0  0  0  0
   15.7020   -7.7199  -15.5209 C   0  0  0  0  0  0  0  0  0  0  0  0
   14.8461   -7.7787  -14.3231 C   0  0  0  0  0  0  0  0  0  0  0  0
   15.1859   -7.3061  -13.2006 O   0  0  0  0  0  0  0  0  0  0  0  0
   19.2110   -6.9346  -14.7106 C   0  0  0  0  0  0  0  0  0  0  0  0
   19.2560   -7.4710  -13.5514 O   0  0  0  0  0  0  0  0  0  0  0  0
   13.5800   -8.3714  -14.3456 O   0  0  0  0  0  0  0  0  0  0  0  0
   20.1660   -5.9267  -14.9482 N   0  0  0  0  0  0  0  0  0  0  0  0
   21.1470   -5.5279  -13.9271 C   0  0  1  0  0  0  0  0  0  0  0  0
   22.5273   -5.9157  -14.4820 C   0  0  0  0  0  0  0  0  0  0  0  0
   22.6940   -7.3663  -14.5877 C   0  0  0  0  0  0  0  0  0  0  0  0
   22.9712   -8.1501  -13.4697 C   0  0  0  0  0  0  0  0  0  0  0  0
   23.1119   -9.5150  -13.5691 C   0  0  0  0  0  0  0  0  0  0  0  0
   22.9868  -10.1749  -14.7726 C   0  0  0  0  0  0  0  0  0  0  0  0
   22.7126   -9.4000  -15.8780 C   0  0  0  0  0  0  0  0  0  0  0  0
   22.5694   -8.0360  -15.7928 C   0  0  0  0  0  0  0  0  0  0  0  0
   21.1173   -4.0637  -13.8208 C   0  0  0  0  0  0  0  0  0  0  0  0
   21.8743   -3.3655  -12.8724 O   0  0  0  0  0  0  0  0  0  0  0  0
   20.3907   -3.4008  -14.6003 O   0  0  0  0  0  0  0  0  0  0  0  0
  2  1  1  0
  3  2  2  0
  4  3  1  0
  5 11  1  0
  5  4  2  0
  6  5  1  0
  7  9  1  0
  7  6  1  0
  7  8  1  6
  9 10  2  0
 11 12  2  0
 12  2  1  0
 13 14  1  0
 13  9  1  0
 14 15  1  1
 16 15  1  0
 17 16  1  0
 17 18  2  0
 19 14  1  0
 20 19  2  0
 21 17  1  0
 22 19  1  0
 23 24  1  6
 23 22  1  0
 24 25  1  0
 25 30  2  0
 26 27  2  0
 26 25  1  0
 27 28  1  0
 28 29  2  0
 30 29  1  0
 31 23  1  0
 31 32  1  0
 33 31  2  0
M  END
$$$$
