YEF.pdb
     RDKit          3D

 33 34  0  0  1  0  0  0  0  0999 V2000
   17.9073  -17.8414  -13.0372 O   0  0  0  0  0  0  0  0  0  0  0  0
   19.1163  -18.5472  -13.1080 C   0  0  0  0  0  0  0  0  0  0  0  0
   20.2758  -17.9682  -13.5523 C   0  0  0  0  0  0  0  0  0  0  0  0
   21.4521  -18.6764  -13.6148 C   0  0  0  0  0  0  0  0  0  0  0  0
   21.5235  -20.0145  -13.2305 C   0  0  0  0  0  0  0  0  0  0  0  0
   22.7917  -20.7892  -13.2946 C   0  0  0  0  0  0  0  0  0  0  0  0
   23.1850  -20.8727  -14.7540 C   0  0  2  0  0  0  0  0  0  0  0  0
   22.1038  -21.5394  -15.4539 N   0  0  0  0  0  0  0  0  0  0  0  0
   24.4329  -21.6036  -14.9769 C   0  0  0  0  0  0  0  0  0  0  0  0
   25.4876  -21.2776  -14.3751 O   0  0  0  0  0  0  0  0  0  0  0  0
   20.3502  -20.5864  -12.7851 C   0  0  0  0  0  0  0  0  0  0  0  0
   19.1807  -19.8747  -12.7252 C   0  0  0  0  0  0  0  0  0  0  0  0
   24.4750  -22.7034  -15.8848 N   0  0  0  0  0  0  0  0  0  0  0  0
   25.6832  -23.3750  -16.2716 C   0  0  1  0  0  0  0  0  0  0  0  0
   25.4453  -24.7083  -16.8984 C   0  0  0  0  0  0  0  0  0  0  0  0
   26.6333  -25.4996  -17.2884 C   0  0  0  0  0  0  0  0  0  0  0  0
   27.0614  -26.5346  -16.3312 C   0  0  0  0  0  0  0  0  0  0  0  0
   26.4088  -26.8327  -15.2900 O   0  0  0  0  0  0  0  0  0  0  0  0
   26.6369  -22.5512  -17.0339 C   0  0  0  0  0  0  0  0  0  0  0  0
   26.2163  -21.6597  -17.8474 O   0  0  0  0  0  0  0  0  0  0  0  0
   28.2374  -27.2689  -16.5108 O   0  0  0  0  0  0  0  0  0  0  0  0
   28.0372  -22.6673  -16.9347 N   0  0  0  0  0  0  0  0  0  0  0  0
   28.9458  -21.7301  -17.6129 C   0  0  1  0  0  0  0  0  0  0  0  0
   30.2596  -21.7509  -16.8147 C   0  0  0  0  0  0  0  0  0  0  0  0
   30.8468  -23.0903  -16.7497 C   0  0  0  0  0  0  0  0  0  0  0  0
   30.5806  -23.9505  -15.6866 C   0  0  0  0  0  0  0  0  0  0  0  0
   31.1212  -25.2146  -15.6355 C   0  0  0  0  0  0  0  0  0  0  0  0
   31.9496  -25.6936  -16.6274 C   0  0  0  0  0  0  0  0  0  0  0  0
   32.2126  -24.8432  -17.6787 C   0  0  0  0  0  0  0  0  0  0  0  0
   31.6792  -23.5785  -17.7422 C   0  0  0  0  0  0  0  0  0  0  0  0
   29.2389  -22.2713  -18.9461 C   0  0  0  0  0  0  0  0  0  0  0  0
   30.0581  -21.6021  -19.8632 O   0  0  0  0  0  0  0  0  0  0  0  0
   28.7430  -23.3714  -19.2906 O   0  0  0  0  0  0  0  0  0  0  0  0
  2  1  1  0
  3  2  2  0
  4  3  1  0
  5 11  1  0
  5  4  2  0
  6  5  1  0
  7  9  1  0
  7  6  1  0
  7  8  1  6
  9 10  2  0
 11 12  2  0
 12  2  1  0
 13 14  1  0
 13  9  1  0
 14 15  1  6
 16 15  1  0
 17 16  1  0
 17 18  2  0
 19 14  1  0
 20 19  2  0
 21 17  1  0
 22 19  1  0
 23 24  1  1
 23 22  1  0
 24 25  1  0
 25 30  2  0
 26 27  2  0
 26 25  1  0
 27 28  1  0
 28 29  2  0
 30 29  1  0
 31 23  1  0
 31 32  1  0
 33 31  2  0
M  END
$$$$
