YEF.pdb
     RDKit          3D

 33 34  0  0  1  0  0  0  0  0999 V2000
   36.3406   -9.5189   -7.1009 O   0  0  0  0  0  0  0  0  0  0  0  0
   37.7273   -9.6830   -7.2231 C   0  0  0  0  0  0  0  0  0  0  0  0
   38.4898  -10.2275   -6.2236 C   0  0  0  0  0  0  0  0  0  0  0  0
   39.8489  -10.3805   -6.3615 C   0  0  0  0  0  0  0  0  0  0  0  0
   40.5165   -9.9904   -7.5215 C   0  0  0  0  0  0  0  0  0  0  0  0
   41.9866  -10.1517   -7.6801 C   0  0  0  0  0  0  0  0  0  0  0  0
   42.6384   -9.4206   -6.5258 C   0  0  2  0  0  0  0  0  0  0  0  0
   42.3112  -10.1490   -5.3151 N   0  0  0  0  0  0  0  0  0  0  0  0
   42.1940   -8.0327   -6.3940 C   0  0  0  0  0  0  0  0  0  0  0  0
   41.8219   -7.5774   -5.2827 O   0  0  0  0  0  0  0  0  0  0  0  0
   39.7385   -9.4436   -8.5205 C   0  0  0  0  0  0  0  0  0  0  0  0
   38.3840   -9.2939   -8.3766 C   0  0  0  0  0  0  0  0  0  0  0  0
   42.1752   -7.1681   -7.5289 N   0  0  0  0  0  0  0  0  0  0  0  0
   41.8878   -5.7636   -7.4591 C   0  0  1  0  0  0  0  0  0  0  0  0
   43.1068   -4.9161   -7.3080 C   0  0  0  0  0  0  0  0  0  0  0  0
   42.9091   -3.4560   -7.1715 C   0  0  0  0  0  0  0  0  0  0  0  0
   44.1340   -2.6502   -7.0263 C   0  0  0  0  0  0  0  0  0  0  0  0
   44.8846   -2.3431   -7.9964 O   0  0  0  0  0  0  0  0  0  0  0  0
   40.9735   -5.2626   -8.4995 C   0  0  0  0  0  0  0  0  0  0  0  0
   41.2114   -5.4898   -9.7345 O   0  0  0  0  0  0  0  0  0  0  0  0
   44.5577   -2.1632   -5.7861 O   0  0  0  0  0  0  0  0  0  0  0  0
   39.8043   -4.5228   -8.2348 N   0  0  0  0  0  0  0  0  0  0  0  0
   38.9557   -3.9959   -9.3147 C   0  0  1  0  0  0  0  0  0  0  0  0
   37.5019   -4.2096   -8.8624 C   0  0  0  0  0  0  0  0  0  0  0  0
   36.5402   -3.6042   -9.7854 C   0  0  0  0  0  0  0  0  0  0  0  0
   36.2555   -4.1814  -11.0211 C   0  0  0  0  0  0  0  0  0  0  0  0
   35.3397   -3.6191  -11.8801 C   0  0  0  0  0  0  0  0  0  0  0  0
   34.6598   -2.4623  -11.5653 C   0  0  0  0  0  0  0  0  0  0  0  0
   34.9411   -1.8918  -10.3435 C   0  0  0  0  0  0  0  0  0  0  0  0
   35.8533   -2.4429   -9.4761 C   0  0  0  0  0  0  0  0  0  0  0  0
   39.1768   -2.5466   -9.3956 C   0  0  0  0  0  0  0  0  0  0  0  0
   39.5302   -1.7789   -8.2795 O   0  0  0  0  0  0  0  0  0  0  0  0
   39.0464   -1.9607  -10.4978 O   0  0  0  0  0  0  0  0  0  0  0  0
  2  1  1  0
  3  2  2  0
  4  3  1  0
  5 11  1  0
  5  4  2  0
  6  5  1  0
  7  9  1  0
  7  6  1  0
  7  8  1  1
  9 10  2  0
 11 12  2  0
 12  2  1  0
 13 14  1  0
 13  9  1  0
 14 15  1  6
 16 15  1  0
 17 16  1  0
 17 18  2  0
 19 14  1  0
 20 19  2  0
 21 17  1  0
 22 19  1  0
 23 24  1  1
 23 22  1  0
 24 25  1  0
 25 30  2  0
 26 27  2  0
 26 25  1  0
 27 28  1  0
 28 29  2  0
 30 29  1  0
 31 23  1  0
 31 32  1  0
 33 31  2  0
M  END
$$$$
