YEF.pdb
     RDKit          3D

 33 34  0  0  1  0  0  0  0  0999 V2000
   24.0539  -16.3383  -22.7045 O   0  0  0  0  0  0  0  0  0  0  0  0
   23.3771  -15.1309  -22.4827 C   0  0  0  0  0  0  0  0  0  0  0  0
   22.2937  -14.7520  -23.2307 C   0  0  0  0  0  0  0  0  0  0  0  0
   21.6427  -13.5639  -22.9984 C   0  0  0  0  0  0  0  0  0  0  0  0
   22.0513  -12.6885  -21.9934 C   0  0  0  0  0  0  0  0  0  0  0  0
   21.3534  -11.4007  -21.7344 C   0  0  0  0  0  0  0  0  0  0  0  0
   20.3411  -11.6593  -20.6389 C   0  0  2  0  0  0  0  0  0  0  0  0
   19.3060  -12.5057  -21.2004 N   0  0  0  0  0  0  0  0  0  0  0  0
   19.7360  -10.4370  -20.1088 C   0  0  0  0  0  0  0  0  0  0  0  0
   18.9255   -9.7671  -20.7981 O   0  0  0  0  0  0  0  0  0  0  0  0
   23.1428  -13.0806  -21.2470 C   0  0  0  0  0  0  0  0  0  0  0  0
   23.7873  -14.2665  -21.4839 C   0  0  0  0  0  0  0  0  0  0  0  0
   20.0565   -9.9821  -18.7950 N   0  0  0  0  0  0  0  0  0  0  0  0
   19.5306   -8.7789  -18.2152 C   0  0  1  0  0  0  0  0  0  0  0  0
   19.1904   -8.9178  -16.7688 C   0  0  0  0  0  0  0  0  0  0  0  0
   18.1544   -9.9096  -16.4046 C   0  0  0  0  0  0  0  0  0  0  0  0
   17.8206   -9.9970  -14.9723 C   0  0  0  0  0  0  0  0  0  0  0  0
   18.4900  -10.6756  -14.1414 O   0  0  0  0  0  0  0  0  0  0  0  0
   20.3051   -7.5594  -18.5018 C   0  0  0  0  0  0  0  0  0  0  0  0
   21.5822   -7.5964  -18.5355 O   0  0  0  0  0  0  0  0  0  0  0  0
   16.7230   -9.3259  -14.4250 O   0  0  0  0  0  0  0  0  0  0  0  0
   19.7296   -6.2990  -18.7560 N   0  0  0  0  0  0  0  0  0  0  0  0
   20.5507   -5.0961  -18.9629 C   0  0  1  0  0  0  0  0  0  0  0  0
   20.1988   -4.5709  -20.3643 C   0  0  0  0  0  0  0  0  0  0  0  0
   20.8860   -3.3158  -20.6740 C   0  0  0  0  0  0  0  0  0  0  0  0
   20.2225   -2.0917  -20.6244 C   0  0  0  0  0  0  0  0  0  0  0  0
   20.8743   -0.9122  -20.9006 C   0  0  0  0  0  0  0  0  0  0  0  0
   22.2100   -0.8794  -21.2388 C   0  0  0  0  0  0  0  0  0  0  0  0
   22.8662   -2.0897  -21.2876 C   0  0  0  0  0  0  0  0  0  0  0  0
   22.2273   -3.2750  -21.0139 C   0  0  0  0  0  0  0  0  0  0  0  0
   20.1143   -4.0806  -17.9962 C   0  0  0  0  0  0  0  0  0  0  0  0
   19.0877   -4.3159  -17.0739 O   0  0  0  0  0  0  0  0  0  0  0  0
   20.6711   -2.9559  -17.9856 O   0  0  0  0  0  0  0  0  0  0  0  0
  2  1  1  0
  3  2  2  0
  4  3  1  0
  5 11  1  0
  5  4  2  0
  6  5  1  0
  7  9  1  0
  7  6  1  0
  7  8  1  6
  9 10  2  0
 11 12  2  0
 12  2  1  0
 13 14  1  0
 13  9  1  0
 14 15  1  1
 16 15  1  0
 17 16  1  0
 17 18  2  0
 19 14  1  0
 20 19  2  0
 21 17  1  0
 22 19  1  0
 23 24  1  6
 23 22  1  0
 24 25  1  0
 25 30  2  0
 26 27  2  0
 26 25  1  0
 27 28  1  0
 28 29  2  0
 30 29  1  0
 31 23  1  0
 31 32  1  0
 33 31  2  0
M  END
$$$$
