YEF.pdb
     RDKit          3D

 33 34  0  0  1  0  0  0  0  0999 V2000
   21.6523  -13.2127  -19.8381 O   0  0  0  0  0  0  0  0  0  0  0  0
   21.1233  -11.9149  -19.8081 C   0  0  0  0  0  0  0  0  0  0  0  0
   21.7422  -10.8885  -19.1445 C   0  0  0  0  0  0  0  0  0  0  0  0
   21.2082   -9.6221  -19.1261 C   0  0  0  0  0  0  0  0  0  0  0  0
   20.0144   -9.3203  -19.7797 C   0  0  0  0  0  0  0  0  0  0  0  0
   19.4286   -7.9532  -19.7654 C   0  0  0  0  0  0  0  0  0  0  0  0
   18.7825   -7.7634  -18.4096 C   0  0  2  0  0  0  0  0  0  0  0  0
   17.6877   -8.7102  -18.3181 N   0  0  0  0  0  0  0  0  0  0  0  0
   18.2735   -6.4085  -18.1947 C   0  0  0  0  0  0  0  0  0  0  0  0
   17.1455   -6.0664  -18.6322 O   0  0  0  0  0  0  0  0  0  0  0  0
   19.4006  -10.3615  -20.4441 C   0  0  0  0  0  0  0  0  0  0  0  0
   19.9383  -11.6218  -20.4585 C   0  0  0  0  0  0  0  0  0  0  0  0
   19.0515   -5.4479  -17.4822 N   0  0  0  0  0  0  0  0  0  0  0  0
   18.6669   -4.0756  -17.3116 C   0  0  1  0  0  0  0  0  0  0  0  0
   17.9374   -3.8191  -16.0352 C   0  0  0  0  0  0  0  0  0  0  0  0
   17.4855   -2.4342  -15.7750 C   0  0  0  0  0  0  0  0  0  0  0  0
   16.7619   -2.2191  -14.5098 C   0  0  0  0  0  0  0  0  0  0  0  0
   17.2855   -1.6849  -13.4903 O   0  0  0  0  0  0  0  0  0  0  0  0
   19.7355   -3.0935  -17.5621 C   0  0  0  0  0  0  0  0  0  0  0  0
   20.8569   -3.1883  -16.9562 O   0  0  0  0  0  0  0  0  0  0  0  0
   15.4259   -2.5976  -14.3468 O   0  0  0  0  0  0  0  0  0  0  0  0
   19.6207   -2.0111  -18.4562 N   0  0  0  0  0  0  0  0  0  0  0  0
   20.6683   -0.9853  -18.5749 C   0  0  1  0  0  0  0  0  0  0  0  0
   20.7677   -0.6430  -20.0704 C   0  0  0  0  0  0  0  0  0  0  0  0
   21.7254    0.4335  -20.3297 C   0  0  0  0  0  0  0  0  0  0  0  0
   21.3050    1.7017  -20.7245 C   0  0  0  0  0  0  0  0  0  0  0  0
   22.2059    2.7161  -20.9524 C   0  0  0  0  0  0  0  0  0  0  0  0
   23.5637    2.5323  -20.8030 C   0  0  0  0  0  0  0  0  0  0  0  0
   23.9794    1.2784  -20.4124 C   0  0  0  0  0  0  0  0  0  0  0  0
   23.0903    0.2565  -20.1813 C   0  0  0  0  0  0  0  0  0  0  0  0
   20.1980    0.2217  -17.8835 C   0  0  0  0  0  0  0  0  0  0  0  0
   18.9793    0.2646  -17.1958 O   0  0  0  0  0  0  0  0  0  0  0  0
   20.9020    1.2604  -17.9023 O   0  0  0  0  0  0  0  0  0  0  0  0
  2  1  1  0
  3  2  2  0
  4  3  1  0
  5 11  1  0
  5  4  2  0
  6  5  1  0
  7  9  1  0
  7  6  1  0
  7  8  1  6
  9 10  2  0
 11 12  2  0
 12  2  1  0
 13 14  1  0
 13  9  1  0
 14 15  1  1
 16 15  1  0
 17 16  1  0
 17 18  2  0
 19 14  1  0
 20 19  2  0
 21 17  1  0
 22 19  1  0
 23 24  1  6
 23 22  1  0
 24 25  1  0
 25 30  2  0
 26 27  2  0
 26 25  1  0
 27 28  1  0
 28 29  2  0
 30 29  1  0
 31 23  1  0
 31 32  1  0
 33 31  2  0
M  END
$$$$
