YEF.pdb
     RDKit          3D

 33 34  0  0  1  0  0  0  0  0999 V2000
   26.1502  -27.6672  -19.7087 O   0  0  0  0  0  0  0  0  0  0  0  0
   26.2856  -26.8135  -18.6052 C   0  0  0  0  0  0  0  0  0  0  0  0
   25.2364  -26.0829  -18.1130 C   0  0  0  0  0  0  0  0  0  0  0  0
   25.3884  -25.2508  -17.0296 C   0  0  0  0  0  0  0  0  0  0  0  0
   26.6137  -25.1094  -16.3800 C   0  0  0  0  0  0  0  0  0  0  0  0
   26.7881  -24.2115  -15.2071 C   0  0  0  0  0  0  0  0  0  0  0  0
   26.4530  -22.8097  -15.6701 C   0  0  2  0  0  0  0  0  0  0  0  0
   27.5604  -22.3493  -16.4855 N   0  0  0  0  0  0  0  0  0  0  0  0
   26.2368  -21.8716  -14.5682 C   0  0  0  0  0  0  0  0  0  0  0  0
   27.2045  -21.2810  -14.0247 O   0  0  0  0  0  0  0  0  0  0  0  0
   27.6624  -25.8497  -16.8844 C   0  0  0  0  0  0  0  0  0  0  0  0
   27.5041  -26.6776  -17.9649 C   0  0  0  0  0  0  0  0  0  0  0  0
   24.9186  -21.6097  -14.0891 N   0  0  0  0  0  0  0  0  0  0  0  0
   24.6308  -20.7788  -12.9546 C   0  0  1  0  0  0  0  0  0  0  0  0
   23.2172  -20.3022  -12.9127 C   0  0  0  0  0  0  0  0  0  0  0  0
   22.7889  -19.5440  -11.7163 C   0  0  0  0  0  0  0  0  0  0  0  0
   21.3917  -19.7427  -11.2930 C   0  0  0  0  0  0  0  0  0  0  0  0
   20.8907  -19.1984  -10.2675 O   0  0  0  0  0  0  0  0  0  0  0  0
   25.0890  -21.3116  -11.6603 C   0  0  0  0  0  0  0  0  0  0  0  0
   24.7872  -22.5022  -11.3069 O   0  0  0  0  0  0  0  0  0  0  0  0
   20.5106  -20.5605  -12.0067 O   0  0  0  0  0  0  0  0  0  0  0  0
   25.8697  -20.5866  -10.7387 N   0  0  0  0  0  0  0  0  0  0  0  0
   26.2790  -21.1580   -9.4464 C   0  0  1  0  0  0  0  0  0  0  0  0
   27.5998  -20.4671   -9.0697 C   0  0  0  0  0  0  0  0  0  0  0  0
   27.6927  -20.1954   -7.6342 C   0  0  0  0  0  0  0  0  0  0  0  0
   27.0778  -19.0832   -7.0631 C   0  0  0  0  0  0  0  0  0  0  0  0
   27.1534  -18.8384   -5.7114 C   0  0  0  0  0  0  0  0  0  0  0  0
   27.8373  -19.6754   -4.8562 C   0  0  0  0  0  0  0  0  0  0  0  0
   28.4451  -20.7751   -5.4208 C   0  0  0  0  0  0  0  0  0  0  0  0
   28.3773  -21.0315   -6.7691 C   0  0  0  0  0  0  0  0  0  0  0  0
   25.2815  -20.7645   -8.4433 C   0  0  0  0  0  0  0  0  0  0  0  0
   25.0066  -21.5444   -7.3137 O   0  0  0  0  0  0  0  0  0  0  0  0
   24.6433  -19.6941   -8.5912 O   0  0  0  0  0  0  0  0  0  0  0  0
  2  1  1  0
  3  2  2  0
  4  3  1  0
  5 11  1  0
  5  4  2  0
  6  5  1  0
  7  9  1  0
  7  6  1  0
  7  8  1  6
  9 10  2  0
 11 12  2  0
 12  2  1  0
 13 14  1  0
 13  9  1  0
 14 15  1  1
 16 15  1  0
 17 16  1  0
 17 18  2  0
 19 14  1  0
 20 19  2  0
 21 17  1  0
 22 19  1  0
 23 24  1  1
 23 22  1  0
 24 25  1  0
 25 30  2  0
 26 27  2  0
 26 25  1  0
 27 28  1  0
 28 29  2  0
 30 29  1  0
 31 23  1  0
 31 32  1  0
 33 31  2  0
M  END
$$$$
