YEF.pdb
     RDKit          3D

 33 34  0  0  1  0  0  0  0  0999 V2000
   43.1322  -14.9910  -11.8032 O   0  0  0  0  0  0  0  0  0  0  0  0
   42.7228  -14.1638  -10.7481 C   0  0  0  0  0  0  0  0  0  0  0  0
   42.5389  -14.6385   -9.4762 C   0  0  0  0  0  0  0  0  0  0  0  0
   42.1370  -13.8120   -8.4540 C   0  0  0  0  0  0  0  0  0  0  0  0
   41.8975  -12.4543   -8.6603 C   0  0  0  0  0  0  0  0  0  0  0  0
   41.4623  -11.5520   -7.5608 C   0  0  0  0  0  0  0  0  0  0  0  0
   42.6572  -10.7001   -7.1891 C   0  0  2  0  0  0  0  0  0  0  0  0
   43.5251  -11.5143   -6.3601 N   0  0  0  0  0  0  0  0  0  0  0  0
   42.2969   -9.4804   -6.4656 C   0  0  0  0  0  0  0  0  0  0  0  0
   41.7644   -9.5387   -5.3282 O   0  0  0  0  0  0  0  0  0  0  0  0
   42.0860  -11.9880   -9.9445 C   0  0  0  0  0  0  0  0  0  0  0  0
   42.4868  -12.8174  -10.9591 C   0  0  0  0  0  0  0  0  0  0  0  0
   42.5444   -8.1983   -7.0406 N   0  0  0  0  0  0  0  0  0  0  0  0
   42.0803   -6.9644   -6.4727 C   0  0  1  0  0  0  0  0  0  0  0  0
   43.1804   -6.0071   -6.1562 C   0  0  0  0  0  0  0  0  0  0  0  0
   42.7969   -4.6763   -5.6348 C   0  0  0  0  0  0  0  0  0  0  0  0
   43.8949   -3.7084   -5.4675 C   0  0  0  0  0  0  0  0  0  0  0  0
   44.2939   -2.9415   -6.3903 O   0  0  0  0  0  0  0  0  0  0  0  0
   40.9639   -6.3285   -7.1927 C   0  0  0  0  0  0  0  0  0  0  0  0
   40.9066   -6.3744   -8.4687 O   0  0  0  0  0  0  0  0  0  0  0  0
   44.5826   -3.5698   -4.2581 O   0  0  0  0  0  0  0  0  0  0  0  0
   39.9045   -5.6454   -6.5638 N   0  0  0  0  0  0  0  0  0  0  0  0
   38.8298   -4.9993   -7.3329 C   0  0  1  0  0  0  0  0  0  0  0  0
   37.6097   -4.9383   -6.3994 C   0  0  0  0  0  0  0  0  0  0  0  0
   36.4842   -4.2244   -7.0051 C   0  0  0  0  0  0  0  0  0  0  0  0
   36.2893   -2.8611   -6.7943 C   0  0  0  0  0  0  0  0  0  0  0  0
   35.2398   -2.1892   -7.3772 C   0  0  0  0  0  0  0  0  0  0  0  0
   34.3314   -2.8256   -8.1954 C   0  0  0  0  0  0  0  0  0  0  0  0
   34.5242   -4.1735   -8.4039 C   0  0  0  0  0  0  0  0  0  0  0  0
   35.5682   -4.8566   -7.8281 C   0  0  0  0  0  0  0  0  0  0  0  0
   39.2387   -3.6154   -7.6043 C   0  0  0  0  0  0  0  0  0  0  0  0
   38.9094   -2.9563   -8.7947 O   0  0  0  0  0  0  0  0  0  0  0  0
   39.9092   -2.9886   -6.7485 O   0  0  0  0  0  0  0  0  0  0  0  0
  2  1  1  0
  3  2  2  0
  4  3  1  0
  5 11  1  0
  5  4  2  0
  6  5  1  0
  7  9  1  0
  7  6  1  0
  7  8  1  1
  9 10  2  0
 11 12  2  0
 12  2  1  0
 13 14  1  0
 13  9  1  0
 14 15  1  6
 16 15  1  0
 17 16  1  0
 17 18  2  0
 19 14  1  0
 20 19  2  0
 21 17  1  0
 22 19  1  0
 23 24  1  1
 23 22  1  0
 24 25  1  0
 25 30  2  0
 26 27  2  0
 26 25  1  0
 27 28  1  0
 28 29  2  0
 30 29  1  0
 31 23  1  0
 31 32  1  0
 33 31  2  0
M  END
$$$$
