YEF.pdb
     RDKit          3D

 33 34  0  0  1  0  0  0  0  0999 V2000
   29.5450  -12.6438  -16.7304 O   0  0  0  0  0  0  0  0  0  0  0  0
   28.4441  -11.7841  -16.8493 C   0  0  0  0  0  0  0  0  0  0  0  0
   28.4068  -10.7668  -17.7661 C   0  0  0  0  0  0  0  0  0  0  0  0
   27.3183   -9.9337  -17.8681 C   0  0  0  0  0  0  0  0  0  0  0  0
   26.2020  -10.0822  -17.0463 C   0  0  0  0  0  0  0  0  0  0  0  0
   25.0196   -9.1857  -17.1490 C   0  0  0  0  0  0  0  0  0  0  0  0
   23.9138   -9.9861  -17.8035 C   0  0  2  0  0  0  0  0  0  0  0  0
   24.3468  -10.2951  -19.1527 N   0  0  0  0  0  0  0  0  0  0  0  0
   22.6356   -9.2757  -17.8531 C   0  0  0  0  0  0  0  0  0  0  0  0
   22.3681   -8.4950  -18.8017 O   0  0  0  0  0  0  0  0  0  0  0  0
   26.2511  -11.1095  -16.1275 C   0  0  0  0  0  0  0  0  0  0  0  0
   27.3395  -11.9366  -16.0310 C   0  0  0  0  0  0  0  0  0  0  0  0
   21.6665   -9.4571  -16.8219 N   0  0  0  0  0  0  0  0  0  0  0  0
   20.4244   -8.7406  -16.7571 C   0  0  1  0  0  0  0  0  0  0  0  0
   19.3270   -9.5149  -16.1065 C   0  0  0  0  0  0  0  0  0  0  0  0
   17.9700   -8.9251  -16.1302 C   0  0  0  0  0  0  0  0  0  0  0  0
   16.9270   -9.6781  -15.4121 C   0  0  0  0  0  0  0  0  0  0  0  0
   16.4201  -10.7522  -15.8459 O   0  0  0  0  0  0  0  0  0  0  0  0
   20.5263   -7.3626  -16.2474 C   0  0  0  0  0  0  0  0  0  0  0  0
   21.4752   -7.0331  -15.4571 O   0  0  0  0  0  0  0  0  0  0  0  0
   16.4176   -9.2494  -14.1827 O   0  0  0  0  0  0  0  0  0  0  0  0
   19.6260   -6.3299  -16.5752 N   0  0  0  0  0  0  0  0  0  0  0  0
   19.8450   -4.9406  -16.1442 C   0  0  1  0  0  0  0  0  0  0  0  0
   20.8032   -4.3172  -17.1723 C   0  0  0  0  0  0  0  0  0  0  0  0
   22.2053   -4.4450  -16.7710 C   0  0  0  0  0  0  0  0  0  0  0  0
   23.1185   -5.1657  -17.5376 C   0  0  0  0  0  0  0  0  0  0  0  0
   24.4391   -5.2712  -17.1667 C   0  0  0  0  0  0  0  0  0  0  0  0
   24.9252   -4.6731  -16.0241 C   0  0  0  0  0  0  0  0  0  0  0  0
   24.0223   -3.9602  -15.2663 C   0  0  0  0  0  0  0  0  0  0  0  0
   22.7008   -3.8468  -15.6253 C   0  0  0  0  0  0  0  0  0  0  0  0
   18.5662   -4.2275  -16.2542 C   0  0  0  0  0  0  0  0  0  0  0  0
   18.3601   -2.9657  -15.6836 O   0  0  0  0  0  0  0  0  0  0  0  0
   17.6138   -4.7561  -16.8775 O   0  0  0  0  0  0  0  0  0  0  0  0
  2  1  1  0
  3  2  2  0
  4  3  1  0
  5 11  1  0
  5  4  2  0
  6  5  1  0
  7  9  1  0
  7  6  1  0
  7  8  1  6
  9 10  2  0
 11 12  2  0
 12  2  1  0
 13 14  1  0
 13  9  1  0
 14 15  1  1
 16 15  1  0
 17 16  1  0
 17 18  2  0
 19 14  1  0
 20 19  2  0
 21 17  1  0
 22 19  1  0
 23 24  1  6
 23 22  1  0
 24 25  1  0
 25 30  2  0
 26 27  2  0
 26 25  1  0
 27 28  1  0
 28 29  2  0
 30 29  1  0
 31 23  1  0
 31 32  1  0
 33 31  2  0
M  END
$$$$
