RCQ.pdb
     RDKit          3D

 27 26  0  0  1  0  0  0  0  0999 V2000
    8.2272  -12.7896   16.2029 N   0  0  0  0  0  0  0  0  0  0  0  0
    8.1954  -14.1879   16.4498 C   0  0  0  0  0  0  0  0  0  0  0  0
    7.9680  -15.0280   15.5227 N   0  0  0  0  0  0  0  0  0  0  0  0
    8.4304  -14.6338   17.7819 N   0  0  0  0  0  0  0  0  0  0  0  0
    7.3929  -15.2612   18.5774 C   0  0  0  0  0  0  0  0  0  0  0  0
    6.7964  -14.1896   19.4323 C   0  0  0  0  0  0  0  0  0  0  0  0
    7.5129  -13.8440   20.6721 C   0  0  0  0  0  0  0  0  0  0  0  0
    7.9129  -14.9594   21.5751 C   0  0  2  0  0  0  0  0  0  0  0  0
    6.9059  -15.9736   21.7513 N   0  0  0  0  0  0  0  0  0  0  0  0
    8.4327  -14.4766   22.8934 C   0  0  0  0  0  0  0  0  0  0  0  0
    9.4463  -13.7320   22.8830 O   0  0  0  0  0  0  0  0  0  0  0  0
    7.8191  -16.0173   15.7296 N   0  0  0  0  0  0  0  0  0  0  0  0
    7.8662  -14.7982   24.1305 C   0  0  1  0  0  0  0  0  0  0  0  0
    8.4360  -14.4190   25.4210 C   0  0  0  0  0  0  0  0  0  0  0  0
    7.4294  -13.3893   25.9659 S   0  0  0  0  0  0  0  0  0  0  0  0
    7.8383  -12.8517   27.6149 C   0  0  0  0  0  0  0  0  0  0  0  0
    8.5791  -15.5863   26.3083 O   0  0  0  0  0  0  0  0  0  0  0  0
    7.5868  -16.3243   26.5175 N   0  0  0  0  0  0  0  0  0  0  0  0
   11.0040  -19.2713   24.3395 C   0  0  0  0  0  0  0  0  0  0  0  0
   12.0808  -18.6540   25.0499 O   0  0  0  0  0  0  0  0  0  0  0  0
   13.1897  -18.6404   24.4759 C   0  0  0  0  0  0  0  0  0  0  0  0
   11.8268  -18.0893   26.3749 C   0  0  0  0  0  0  0  0  0  0  0  0
   10.4482  -18.2280   26.9014 C   0  0  1  0  0  0  0  0  0  0  0  0
   10.0384  -17.0762   27.7479 N   0  0  0  0  0  0  0  0  0  0  0  0
    9.8053  -15.8863   26.9208 C   0  0  0  0  0  0  0  0  0  0  0  0
   10.9361  -16.7702   28.8701 O   0  0  0  0  0  0  0  0  0  0  0  0
   11.2275  -17.7578   29.7811 O   0  0  0  0  0  0  0  0  0  0  0  0
  2  1  1  0
  3  2  2  0
  4  2  1  0
  5  6  1  0
  5  4  1  0
  7  6  1  0
  8  7  1  0
  8  9  1  1
 10 11  2  0
 10  8  1  0
 12 10  1  0
 13 12  1  0
 14 15  1  0
 13 14  1  6
 16 13  1  0
 16 24  1  0
 17 16  2  0
 19 18  1  0
 19 20  2  0
 21 19  1  0
 22 21  1  0
 23 24  1  0
 23 22  1  6
 25 23  1  0
 26 25  1  0
 27 25  2  0
M  END
$$$$
