RCQ.pdb
     RDKit          3D

 27 26  0  0  1  0  0  0  0  0999 V2000
    8.7318  -14.0773   19.7510 N   0  0  0  0  0  0  0  0  0  0  0  0
    8.2112  -12.9861   19.0059 C   0  0  0  0  0  0  0  0  0  0  0  0
    8.4433  -11.7792   19.3321 N   0  0  0  0  0  0  0  0  0  0  0  0
    7.4115  -13.2809   17.8647 N   0  0  0  0  0  0  0  0  0  0  0  0
    7.0883  -14.6419   17.4827 C   0  0  0  0  0  0  0  0  0  0  0  0
    8.0276  -15.0164   16.3815 C   0  0  0  0  0  0  0  0  0  0  0  0
    9.4603  -14.7575   16.6051 C   0  0  0  0  0  0  0  0  0  0  0  0
   10.4099  -15.8855   16.3914 C   0  0  2  0  0  0  0  0  0  0  0  0
   10.0778  -16.7417   15.2822 N   0  0  0  0  0  0  0  0  0  0  0  0
   10.6513  -16.6804   17.6368 C   0  0  0  0  0  0  0  0  0  0  0  0
    9.7879  -17.5364   17.9585 O   0  0  0  0  0  0  0  0  0  0  0  0
    8.0795  -11.0017   18.7782 N   0  0  0  0  0  0  0  0  0  0  0  0
   11.7705  -16.5336   18.4619 C   0  0  2  0  0  0  0  0  0  0  0  0
   12.0572  -17.3776   19.6191 C   0  0  0  0  0  0  0  0  0  0  0  0
   12.9073  -18.5166   19.0273 S   0  0  0  0  0  0  0  0  0  0  0  0
   14.2927  -17.9073   18.0865 C   0  0  0  0  0  0  0  0  0  0  0  0
   12.7746  -16.6284   20.6653 O   0  0  0  0  0  0  0  0  0  0  0  0
   13.6052  -15.7498   20.3316 N   0  0  0  0  0  0  0  0  0  0  0  0
   12.4607  -18.6241   26.6809 C   0  0  0  0  0  0  0  0  0  0  0  0
   11.4164  -17.9835   25.9430 O   0  0  0  0  0  0  0  0  0  0  0  0
   10.2618  -18.0916   26.4061 C   0  0  0  0  0  0  0  0  0  0  0  0
   11.7535  -17.2578   24.7187 C   0  0  0  0  0  0  0  0  0  0  0  0
   13.1867  -17.2221   24.3426 C   0  0  2  0  0  0  0  0  0  0  0  0
   13.4359  -16.4378   23.1041 N   0  0  0  0  0  0  0  0  0  0  0  0
   12.5434  -16.8800   22.0261 C   0  0  0  0  0  0  0  0  0  0  0  0
   14.8333  -16.4055   22.6512 O   0  0  0  0  0  0  0  0  0  0  0  0
   15.3540  -17.5054   22.0114 O   0  0  0  0  0  0  0  0  0  0  0  0
  2  1  1  0
  3  2  2  0
  4  2  1  0
  5  6  1  0
  5  4  1  0
  7  6  1  0
  8  7  1  0
  8  9  1  6
 10 11  2  0
 10  8  1  0
 12 10  1  0
 13 12  1  0
 14 15  1  0
 13 14  1  6
 16 13  1  0
 16 24  1  0
 17 16  2  0
 19 18  1  0
 19 20  2  0
 21 19  1  0
 22 21  1  0
 23 24  1  0
 23 22  1  1
 25 23  1  0
 26 25  1  0
 27 25  2  0
M  END
$$$$
