RCQ.pdb
     RDKit          3D

 27 26  0  0  1  0  0  0  0  0999 V2000
    8.4825  -12.4589   19.0732 N   0  0  0  0  0  0  0  0  0  0  0  0
    8.3281  -13.6068   18.2514 C   0  0  0  0  0  0  0  0  0  0  0  0
    9.0336  -13.7854   17.2086 N   0  0  0  0  0  0  0  0  0  0  0  0
    7.3495  -14.5698   18.6305 N   0  0  0  0  0  0  0  0  0  0  0  0
    6.6308  -14.4826   19.8869 C   0  0  0  0  0  0  0  0  0  0  0  0
    6.7067  -15.8335   20.5229 C   0  0  0  0  0  0  0  0  0  0  0  0
    5.4550  -16.6052   20.6095 C   0  0  0  0  0  0  0  0  0  0  0  0
    5.5145  -17.9535   21.2406 C   0  0  2  0  0  0  0  0  0  0  0  0
    4.3930  -18.8038   20.9359 N   0  0  0  0  0  0  0  0  0  0  0  0
    5.7617  -17.8898   22.7157 C   0  0  0  0  0  0  0  0  0  0  0  0
    4.8145  -17.5080   23.4496 O   0  0  0  0  0  0  0  0  0  0  0  0
    8.9318  -14.6268   16.6383 N   0  0  0  0  0  0  0  0  0  0  0  0
    6.9729  -18.2264   23.3279 C   0  0  2  0  0  0  0  0  0  0  0  0
    7.2594  -18.0355   24.7475 C   0  0  0  0  0  0  0  0  0  0  0  0
    8.1739  -19.2260   25.0894 S   0  0  0  0  0  0  0  0  0  0  0  0
    9.8026  -19.0505   24.3878 C   0  0  0  0  0  0  0  0  0  0  0  0
    7.9130  -16.7383   24.9934 O   0  0  0  0  0  0  0  0  0  0  0  0
    8.5260  -16.1720   24.0572 N   0  0  0  0  0  0  0  0  0  0  0  0
    5.0169  -12.0740   27.4136 C   0  0  0  0  0  0  0  0  0  0  0  0
    6.3608  -11.5888   27.4742 O   0  0  0  0  0  0  0  0  0  0  0  0
    6.5071  -10.4008   27.8299 C   0  0  0  0  0  0  0  0  0  0  0  0
    7.4582  -12.4899   27.1236 C   0  0  0  0  0  0  0  0  0  0  0  0
    7.1046  -13.9135   26.9105 C   0  0  2  0  0  0  0  0  0  0  0  0
    8.2733  -14.7418   26.5118 N   0  0  0  0  0  0  0  0  0  0  0  0
    7.8597  -16.1264   26.2549 C   0  0  0  0  0  0  0  0  0  0  0  0
    9.4188  -14.6961   27.4310 O   0  0  0  0  0  0  0  0  0  0  0  0
   10.2834  -13.6290   27.3684 O   0  0  0  0  0  0  0  0  0  0  0  0
  2  1  1  0
  3  2  2  0
  4  2  1  0
  5  6  1  0
  5  4  1  0
  7  6  1  0
  8  7  1  0
  8  9  1  1
 10 11  2  0
 10  8  1  0
 12 10  1  0
 13 12  1  0
 14 15  1  0
 13 14  1  6
 16 13  1  0
 16 24  1  0
 17 16  2  0
 19 18  1  0
 19 20  2  0
 21 19  1  0
 22 21  1  0
 23 24  1  0
 23 22  1  6
 25 23  1  0
 26 25  1  0
 27 25  2  0
M  END
$$$$
