RCQ.pdb
     RDKit          3D

 27 26  0  0  1  0  0  0  0  0999 V2000
    9.8928  -13.8910   15.4952 N   0  0  0  0  0  0  0  0  0  0  0  0
    8.5041  -13.9635   15.7840 C   0  0  0  0  0  0  0  0  0  0  0  0
    7.6825  -14.5245   14.9920 N   0  0  0  0  0  0  0  0  0  0  0  0
    8.0468  -13.3853   17.0027 N   0  0  0  0  0  0  0  0  0  0  0  0
    8.5913  -13.7724   18.2898 C   0  0  0  0  0  0  0  0  0  0  0  0
    7.5345  -13.4898   19.3087 C   0  0  0  0  0  0  0  0  0  0  0  0
    6.7414  -14.6350   19.7877 C   0  0  0  0  0  0  0  0  0  0  0  0
    7.4436  -15.6790   20.5855 C   0  0  2  0  0  0  0  0  0  0  0  0
    6.6439  -16.8387   20.8842 N   0  0  0  0  0  0  0  0  0  0  0  0
    8.0827  -15.1278   21.8220 C   0  0  0  0  0  0  0  0  0  0  0  0
    8.9959  -14.2756   21.6758 O   0  0  0  0  0  0  0  0  0  0  0  0
    6.6817  -14.5467   15.1961 N   0  0  0  0  0  0  0  0  0  0  0  0
    7.7310  -15.4975   23.1237 C   0  0  1  0  0  0  0  0  0  0  0  0
    8.3243  -14.9274   24.3307 C   0  0  0  0  0  0  0  0  0  0  0  0
    7.1008  -14.4888   25.1559 S   0  0  0  0  0  0  0  0  0  0  0  0
    7.5518  -13.9200   26.7833 C   0  0  0  0  0  0  0  0  0  0  0  0
    9.1531  -15.9173   25.0404 O   0  0  0  0  0  0  0  0  0  0  0  0
    8.7697  -17.1100   25.0997 N   0  0  0  0  0  0  0  0  0  0  0  0
   10.4405  -13.6613   28.9532 C   0  0  0  0  0  0  0  0  0  0  0  0
   10.7530  -14.8739   29.6439 O   0  0  0  0  0  0  0  0  0  0  0  0
   10.3961  -14.9407   30.8387 C   0  0  0  0  0  0  0  0  0  0  0  0
   11.4559  -15.9385   28.9284 C   0  0  0  0  0  0  0  0  0  0  0  0
   11.8815  -15.6359   27.5413 C   0  0  1  0  0  0  0  0  0  0  0  0
   11.1400  -16.4310   26.5269 N   0  0  0  0  0  0  0  0  0  0  0  0
   10.3626  -15.5488   25.6486 C   0  0  0  0  0  0  0  0  0  0  0  0
   10.3012  -17.5107   27.0652 O   0  0  0  0  0  0  0  0  0  0  0  0
   10.8621  -18.7467   27.2838 O   0  0  0  0  0  0  0  0  0  0  0  0
  2  1  1  0
  3  2  2  0
  4  2  1  0
  5  6  1  0
  5  4  1  0
  7  6  1  0
  8  7  1  0
  8  9  1  1
 10 11  2  0
 10  8  1  0
 12 10  1  0
 13 12  1  0
 14 15  1  0
 13 14  1  6
 16 13  1  0
 16 24  1  0
 17 16  2  0
 19 18  1  0
 19 20  2  0
 21 19  1  0
 22 21  1  0
 23 24  1  0
 23 22  1  6
 25 23  1  0
 26 25  1  0
 27 25  2  0
M  END
$$$$
