RCQ.pdb
     RDKit          3D

 27 26  0  0  1  0  0  0  0  0999 V2000
    9.2055  -13.3965   20.0215 N   0  0  0  0  0  0  0  0  0  0  0  0
    8.5191  -13.4543   18.7795 C   0  0  0  0  0  0  0  0  0  0  0  0
    7.8827  -12.4551   18.3174 N   0  0  0  0  0  0  0  0  0  0  0  0
    8.5630  -14.6776   18.0513 N   0  0  0  0  0  0  0  0  0  0  0  0
    7.9543  -15.8942   18.5536 C   0  0  0  0  0  0  0  0  0  0  0  0
    8.6903  -16.2622   19.8017 C   0  0  0  0  0  0  0  0  0  0  0  0
    7.8818  -16.6998   20.9527 C   0  0  0  0  0  0  0  0  0  0  0  0
    7.1264  -15.6588   21.7047 C   0  0  2  0  0  0  0  0  0  0  0  0
    6.7300  -14.5226   20.9138 N   0  0  0  0  0  0  0  0  0  0  0  0
    7.8255  -15.2304   22.9572 C   0  0  0  0  0  0  0  0  0  0  0  0
    9.0275  -15.5718   23.0999 O   0  0  0  0  0  0  0  0  0  0  0  0
    7.4449  -12.4869   17.3949 N   0  0  0  0  0  0  0  0  0  0  0  0
    7.2309  -14.4776   23.9745 C   0  0  1  0  0  0  0  0  0  0  0  0
    7.8854  -14.1327   25.2340 C   0  0  0  0  0  0  0  0  0  0  0  0
    7.0834  -12.9158   25.7304 S   0  0  0  0  0  0  0  0  0  0  0  0
    7.6084  -12.3732   27.3446 C   0  0  0  0  0  0  0  0  0  0  0  0
    7.8446  -15.2566   26.1856 O   0  0  0  0  0  0  0  0  0  0  0  0
    6.8069  -15.9565   26.2654 N   0  0  0  0  0  0  0  0  0  0  0  0
    9.4690  -19.5972   24.2578 C   0  0  0  0  0  0  0  0  0  0  0  0
   10.6385  -19.3209   25.0332 O   0  0  0  0  0  0  0  0  0  0  0  0
   11.7071  -19.8217   24.6249 C   0  0  0  0  0  0  0  0  0  0  0  0
   10.5174  -18.4893   26.2302 C   0  0  0  0  0  0  0  0  0  0  0  0
    9.1763  -17.9247   26.5122 C   0  0  1  0  0  0  0  0  0  0  0  0
    9.2032  -16.8840   27.5739 N   0  0  0  0  0  0  0  0  0  0  0  0
    8.9458  -15.5572   27.0014 C   0  0  0  0  0  0  0  0  0  0  0  0
   10.4107  -16.8713   28.4110 O   0  0  0  0  0  0  0  0  0  0  0  0
   11.3052  -15.8357   28.2779 O   0  0  0  0  0  0  0  0  0  0  0  0
  2  1  1  0
  3  2  2  0
  4  2  1  0
  5  6  1  0
  5  4  1  0
  7  6  1  0
  8  7  1  0
  8  9  1  6
 10 11  2  0
 10  8  1  0
 12 10  1  0
 13 12  1  0
 14 15  1  0
 13 14  1  6
 16 13  1  0
 16 24  1  0
 17 16  2  0
 19 18  1  0
 19 20  2  0
 21 19  1  0
 22 21  1  0
 23 24  1  0
 23 22  1  1
 25 23  1  0
 26 25  1  0
 27 25  2  0
M  END
$$$$
