RCQ.pdb
     RDKit          3D

 27 26  0  0  1  0  0  0  0  0999 V2000
    8.5412  -13.1911   16.1226 N   0  0  0  0  0  0  0  0  0  0  0  0
    7.6756  -14.3125   16.0213 C   0  0  0  0  0  0  0  0  0  0  0  0
    6.9757  -14.5281   14.9818 N   0  0  0  0  0  0  0  0  0  0  0  0
    7.6109  -15.2052   17.1292 N   0  0  0  0  0  0  0  0  0  0  0  0
    8.5493  -15.1318   18.2323 C   0  0  0  0  0  0  0  0  0  0  0  0
    8.5628  -13.7100   18.6942 C   0  0  0  0  0  0  0  0  0  0  0  0
    8.8309  -13.4715   20.1229 C   0  0  0  0  0  0  0  0  0  0  0  0
    8.3012  -14.4616   21.1020 C   0  0  2  0  0  0  0  0  0  0  0  0
    6.9111  -14.7916   20.9227 N   0  0  0  0  0  0  0  0  0  0  0  0
    8.5895  -14.0810   22.5209 C   0  0  0  0  0  0  0  0  0  0  0  0
    9.7772  -13.7923   22.8172 O   0  0  0  0  0  0  0  0  0  0  0  0
    6.3713  -15.3488   14.9114 N   0  0  0  0  0  0  0  0  0  0  0  0
    7.6274  -14.0255   23.5339 C   0  0  1  0  0  0  0  0  0  0  0  0
    7.9213  -13.7293   24.9338 C   0  0  0  0  0  0  0  0  0  0  0  0
    6.7209  -12.8728   25.3762 S   0  0  0  0  0  0  0  0  0  0  0  0
    6.7383  -12.5374   27.1263 C   0  0  0  0  0  0  0  0  0  0  0  0
    8.0518  -14.9636   25.7276 O   0  0  0  0  0  0  0  0  0  0  0  0
    7.0808  -15.7544   25.7976 N   0  0  0  0  0  0  0  0  0  0  0  0
   11.4254  -19.0758   24.2033 C   0  0  0  0  0  0  0  0  0  0  0  0
   12.0083  -18.9156   25.4993 O   0  0  0  0  0  0  0  0  0  0  0  0
   13.1359  -19.4249   25.6684 C   0  0  0  0  0  0  0  0  0  0  0  0
   11.2675  -18.1835   26.5262 C   0  0  0  0  0  0  0  0  0  0  0  0
    9.9908  -17.5597   26.1045 C   0  0  1  0  0  0  0  0  0  0  0  0
    9.4974  -16.5484   27.0765 N   0  0  0  0  0  0  0  0  0  0  0  0
    9.2424  -15.2690   26.4040 C   0  0  0  0  0  0  0  0  0  0  0  0
   10.3371  -16.3594   28.2675 O   0  0  0  0  0  0  0  0  0  0  0  0
   10.5087  -17.4101   29.1375 O   0  0  0  0  0  0  0  0  0  0  0  0
  2  1  1  0
  3  2  2  0
  4  2  1  0
  5  6  1  0
  5  4  1  0
  7  6  1  0
  8  7  1  0
  8  9  1  1
 10 11  2  0
 10  8  1  0
 12 10  1  0
 13 12  1  0
 14 15  1  0
 13 14  1  6
 16 13  1  0
 16 24  1  0
 17 16  2  0
 19 18  1  0
 19 20  2  0
 21 19  1  0
 22 21  1  0
 23 24  1  0
 23 22  1  6
 25 23  1  0
 26 25  1  0
 27 25  2  0
M  END
$$$$
