RCQ.pdb
     RDKit          3D

 27 26  0  0  1  0  0  0  0  0999 V2000
    9.4394  -14.7063   16.2624 N   0  0  0  0  0  0  0  0  0  0  0  0
    8.2528  -15.2044   15.6617 C   0  0  0  0  0  0  0  0  0  0  0  0
    7.9565  -14.9518   14.4511 N   0  0  0  0  0  0  0  0  0  0  0  0
    7.3898  -16.0086   16.4599 N   0  0  0  0  0  0  0  0  0  0  0  0
    7.6060  -16.1914   17.8821 C   0  0  0  0  0  0  0  0  0  0  0  0
    7.6221  -14.8281   18.4955 C   0  0  0  0  0  0  0  0  0  0  0  0
    7.7018  -14.7545   19.9646 C   0  0  0  0  0  0  0  0  0  0  0  0
    7.5804  -13.4119   20.5988 C   0  0  2  0  0  0  0  0  0  0  0  0
    8.2172  -12.3477   19.8670 N   0  0  0  0  0  0  0  0  0  0  0  0
    8.0038  -13.4116   22.0347 C   0  0  0  0  0  0  0  0  0  0  0  0
    9.2342  -13.4996   22.2797 O   0  0  0  0  0  0  0  0  0  0  0  0
    7.1332  -15.3656   14.0102 N   0  0  0  0  0  0  0  0  0  0  0  0
    7.1231  -13.3197   23.1169 C   0  0  2  0  0  0  0  0  0  0  0  0
    7.5273  -13.4089   24.5177 C   0  0  0  0  0  0  0  0  0  0  0  0
    6.3155  -12.8359   25.2751 S   0  0  0  0  0  0  0  0  0  0  0  0
    6.4805  -13.0057   27.0413 C   0  0  0  0  0  0  0  0  0  0  0  0
    7.8226  -14.7997   24.9036 O   0  0  0  0  0  0  0  0  0  0  0  0
    7.0323  -15.7125   24.5640 N   0  0  0  0  0  0  0  0  0  0  0  0
   12.7806  -17.7236   23.5090 C   0  0  0  0  0  0  0  0  0  0  0  0
   12.2869  -18.5967   24.5284 O   0  0  0  0  0  0  0  0  0  0  0  0
   12.8934  -19.6783   24.6754 C   0  0  0  0  0  0  0  0  0  0  0  0
   11.1284  -18.1823   25.3193 C   0  0  0  0  0  0  0  0  0  0  0  0
   10.5755  -16.8378   25.0306 C   0  0  1  0  0  0  0  0  0  0  0  0
    9.4222  -16.4919   25.9032 N   0  0  0  0  0  0  0  0  0  0  0  0
    8.9720  -15.1196   25.6420 C   0  0  0  0  0  0  0  0  0  0  0  0
    9.6333  -16.7125   27.3405 O   0  0  0  0  0  0  0  0  0  0  0  0
    9.7322  -18.0004   27.8113 O   0  0  0  0  0  0  0  0  0  0  0  0
  2  1  1  0
  3  2  2  0
  4  2  1  0
  5  6  1  0
  5  4  1  0
  7  6  1  0
  8  7  1  0
  8  9  1  6
 10 11  2  0
 10  8  1  0
 12 10  1  0
 13 12  1  0
 14 15  1  0
 13 14  1  6
 16 13  1  0
 16 24  1  0
 17 16  2  0
 19 18  1  0
 19 20  2  0
 21 19  1  0
 22 21  1  0
 23 24  1  0
 23 22  1  6
 25 23  1  0
 26 25  1  0
 27 25  2  0
M  END
$$$$
