RCQ.pdb
     RDKit          3D

 27 26  0  0  1  0  0  0  0  0999 V2000
    8.8184  -14.7540   13.0480 N   0  0  0  0  0  0  0  0  0  0  0  0
    8.1208  -14.2553   14.1801 C   0  0  0  0  0  0  0  0  0  0  0  0
    6.8673  -14.4168   14.3205 N   0  0  0  0  0  0  0  0  0  0  0  0
    8.8713  -13.5604   15.1713 N   0  0  0  0  0  0  0  0  0  0  0  0
    8.8822  -13.9767   16.5603 C   0  0  0  0  0  0  0  0  0  0  0  0
    7.4880  -13.8079   17.0730 C   0  0  0  0  0  0  0  0  0  0  0  0
    7.3119  -13.7614   18.5347 C   0  0  0  0  0  0  0  0  0  0  0  0
    8.4051  -14.3148   19.3823 C   0  0  2  0  0  0  0  0  0  0  0  0
    8.8519  -15.6280   18.9956 N   0  0  0  0  0  0  0  0  0  0  0  0
    8.0864  -14.2590   20.8440 C   0  0  0  0  0  0  0  0  0  0  0  0
    7.6898  -13.1614   21.3126 O   0  0  0  0  0  0  0  0  0  0  0  0
    6.3864  -14.1144   15.1696 N   0  0  0  0  0  0  0  0  0  0  0  0
    8.2004  -15.3442   21.7183 C   0  0  1  0  0  0  0  0  0  0  0  0
    7.8711  -15.2943   23.1405 C   0  0  0  0  0  0  0  0  0  0  0  0
    6.6072  -16.1673   23.2441 S   0  0  0  0  0  0  0  0  0  0  0  0
    5.9518  -16.2139   24.9006 C   0  0  0  0  0  0  0  0  0  0  0  0
    8.9772  -15.8096   23.9660 O   0  0  0  0  0  0  0  0  0  0  0  0
    9.7878  -16.6260   23.4666 N   0  0  0  0  0  0  0  0  0  0  0  0
   10.2945  -13.9721   30.0324 C   0  0  0  0  0  0  0  0  0  0  0  0
   11.1771  -15.0664   29.7706 O   0  0  0  0  0  0  0  0  0  0  0  0
   11.8875  -15.4478   30.7241 C   0  0  0  0  0  0  0  0  0  0  0  0
   11.1964  -15.6598   28.4339 C   0  0  0  0  0  0  0  0  0  0  0  0
   10.2151  -15.1281   27.4584 C   0  0  1  0  0  0  0  0  0  0  0  0
   10.2089  -15.8861   26.1792 N   0  0  0  0  0  0  0  0  0  0  0  0
    9.1392  -15.4017   25.2987 C   0  0  0  0  0  0  0  0  0  0  0  0
   10.1577  -17.3482   26.3154 O   0  0  0  0  0  0  0  0  0  0  0  0
   11.3306  -18.0448   26.4862 O   0  0  0  0  0  0  0  0  0  0  0  0
  2  1  1  0
  3  2  2  0
  4  2  1  0
  5  6  1  0
  5  4  1  0
  7  6  1  0
  8  7  1  0
  8  9  1  6
 10 11  2  0
 10  8  1  0
 12 10  1  0
 13 12  1  0
 14 15  1  0
 13 14  1  1
 16 13  1  0
 16 24  1  0
 17 16  2  0
 19 18  1  0
 19 20  2  0
 21 19  1  0
 22 21  1  0
 23 24  1  0
 23 22  1  6
 25 23  1  0
 26 25  1  0
 27 25  2  0
M  END
$$$$
