TLF.pdb
     RDKit          3D

 27 27  0  0  1  0  0  0  0  0999 V2000
    5.7171  -20.1335   21.2542 C   0  0  0  0  0  0  0  0  0  0  0  0
    6.7287  -19.0664   21.5957 C   0  0  1  0  0  0  0  0  0  0  0  0
    7.7612  -19.6165   22.3532 O   0  0  0  0  0  0  0  0  0  0  0  0
    7.2664  -18.3733   20.3636 C   0  0  2  0  0  0  0  0  0  0  0  0
    7.9468  -19.3771   19.5669 N   0  0  0  0  0  0  0  0  0  0  0  0
    8.2432  -17.3358   20.7871 C   0  0  0  0  0  0  0  0  0  0  0  0
    9.4826  -17.6078   20.6368 O   0  0  0  0  0  0  0  0  0  0  0  0
    8.7125  -13.5952   18.8245 C   0  0  0  0  0  0  0  0  0  0  0  0
    7.9256  -13.3839   20.0783 C   0  0  2  0  0  0  0  0  0  0  0  0
    7.2367  -12.0283   20.1004 C   0  0  0  0  0  0  0  0  0  0  0  0
    8.5714  -13.7363   21.3531 C   0  0  0  0  0  0  0  0  0  0  0  0
    8.8184  -15.1276   21.7232 C   0  0  2  0  0  0  0  0  0  0  0  0
    7.8421  -16.0896   21.3373 N   0  0  0  0  0  0  0  0  0  0  0  0
    9.1493  -15.3260   23.1549 C   0  0  0  0  0  0  0  0  0  0  0  0
   10.1355  -14.7197   23.6980 O   0  0  0  0  0  0  0  0  0  0  0  0
    8.4038  -16.1880   24.0089 N   0  0  0  0  0  0  0  0  0  0  0  0
    8.7417  -16.2982   25.4120 C   0  0  1  0  0  0  0  0  0  0  0  0
    7.4672  -16.0489   26.1955 C   0  0  0  0  0  0  0  0  0  0  0  0
    7.1423  -14.6138   26.3006 C   0  0  0  0  0  0  0  0  0  0  0  0
    5.9292  -14.0632   25.9534 C   0  0  0  0  0  0  0  0  0  0  0  0
    5.6528  -12.7302   26.0630 C   0  0  0  0  0  0  0  0  0  0  0  0
    6.6375  -11.8662   26.5495 C   0  0  0  0  0  0  0  0  0  0  0  0
    7.8611  -12.3829   26.9056 C   0  0  0  0  0  0  0  0  0  0  0  0
    8.1073  -13.7268   26.7836 C   0  0  0  0  0  0  0  0  0  0  0  0
    9.3776  -17.5724   25.7447 C   0  0  0  0  0  0  0  0  0  0  0  0
    9.5952  -18.4966   24.7292 O   0  0  0  0  0  0  0  0  0  0  0  0
    9.7494  -17.9056   26.8936 O   0  0  0  0  0  0  0  0  0  0  0  0
  2  1  1  6
  2  4  1  0
  3  2  1  0
  4  5  1  6
  6  7  2  0
  6  4  1  0
  9 11  1  0
  9  8  1  6
 10  9  1  0
 12 11  1  1
 12 13  1  0
 13  6  1  0
 14 12  1  0
 15 14  2  0
 16 14  1  0
 17 16  1  0
 18 19  1  0
 17 18  1  1
 19 24  2  0
 20 21  2  0
 20 19  1  0
 21 22  1  0
 22 23  2  0
 24 23  1  0
 25 17  1  0
 25 26  1  0
 27 25  2  0
M  END
$$$$
