TLF.pdb
     RDKit          3D

 27 27  0  0  1  0  0  0  0  0999 V2000
    7.8516  -20.7894   21.4532 C   0  0  0  0  0  0  0  0  0  0  0  0
    8.5795  -19.5636   21.9494 C   0  0  1  0  0  0  0  0  0  0  0  0
    9.9244  -19.8630   22.1594 O   0  0  0  0  0  0  0  0  0  0  0  0
    8.4231  -18.3873   21.0116 C   0  0  2  0  0  0  0  0  0  0  0  0
    9.0735  -18.7415   19.7639 N   0  0  0  0  0  0  0  0  0  0  0  0
    9.1066  -17.2085   21.6058 C   0  0  0  0  0  0  0  0  0  0  0  0
   10.2759  -16.9333   21.1701 O   0  0  0  0  0  0  0  0  0  0  0  0
    7.7674  -13.1982   21.2997 C   0  0  0  0  0  0  0  0  0  0  0  0
    7.3731  -13.5732   22.6925 C   0  0  2  0  0  0  0  0  0  0  0  0
    6.5389  -12.4923   23.3621 C   0  0  0  0  0  0  0  0  0  0  0  0
    8.4158  -14.1366   23.5652 C   0  0  0  0  0  0  0  0  0  0  0  0
    9.2092  -15.2929   23.1560 C   0  0  2  0  0  0  0  0  0  0  0  0
    8.5081  -16.4076   22.6142 N   0  0  0  0  0  0  0  0  0  0  0  0
   10.1562  -15.7766   24.1894 C   0  0  0  0  0  0  0  0  0  0  0  0
   11.2709  -15.1852   24.3964 O   0  0  0  0  0  0  0  0  0  0  0  0
    9.8933  -16.9110   25.0093 N   0  0  0  0  0  0  0  0  0  0  0  0
   10.8064  -17.2717   26.0729 C   0  0  1  0  0  0  0  0  0  0  0  0
   10.0486  -17.1196   27.3779 C   0  0  0  0  0  0  0  0  0  0  0  0
    9.6700  -15.7200   27.6495 C   0  0  0  0  0  0  0  0  0  0  0  0
    8.5566  -15.1001   27.1286 C   0  0  0  0  0  0  0  0  0  0  0  0
    8.2267  -13.8024   27.3982 C   0  0  0  0  0  0  0  0  0  0  0  0
    9.0479  -13.0502   28.2425 C   0  0  0  0  0  0  0  0  0  0  0  0
   10.1685  -13.6385   28.7801 C   0  0  0  0  0  0  0  0  0  0  0  0
   10.4722  -14.9442   28.4897 C   0  0  0  0  0  0  0  0  0  0  0  0
   11.3834  -18.6041   25.8985 C   0  0  0  0  0  0  0  0  0  0  0  0
   12.2804  -19.0745   26.8507 O   0  0  0  0  0  0  0  0  0  0  0  0
   11.1302  -19.3714   24.9412 O   0  0  0  0  0  0  0  0  0  0  0  0
  2  1  1  6
  2  4  1  0
  3  2  1  0
  4  5  1  6
  6  7  2  0
  6  4  1  0
  9 11  1  0
  9  8  1  6
 10  9  1  0
 12 11  1  1
 12 13  1  0
 13  6  1  0
 14 12  1  0
 15 14  2  0
 16 14  1  0
 17 16  1  0
 18 19  1  0
 17 18  1  1
 19 24  2  0
 20 21  2  0
 20 19  1  0
 21 22  1  0
 22 23  2  0
 24 23  1  0
 25 17  1  0
 25 26  1  0
 27 25  2  0
M  END
$$$$
