TLF.pdb
     RDKit          3D

 27 27  0  0  1  0  0  0  0  0999 V2000
   10.9673  -18.8242   16.4975 C   0  0  0  0  0  0  0  0  0  0  0  0
   11.4344  -17.9710   15.3431 C   0  0  1  0  0  0  0  0  0  0  0  0
   11.6014  -18.7606   14.2069 O   0  0  0  0  0  0  0  0  0  0  0  0
   10.4973  -16.8154   15.0708 C   0  0  2  0  0  0  0  0  0  0  0  0
   11.0431  -16.0730   13.9499 N   0  0  0  0  0  0  0  0  0  0  0  0
   10.4593  -15.9384   16.2705 C   0  0  0  0  0  0  0  0  0  0  0  0
   11.5084  -15.2546   16.5247 O   0  0  0  0  0  0  0  0  0  0  0  0
    6.7030  -13.6310   20.6993 C   0  0  0  0  0  0  0  0  0  0  0  0
    7.9747  -13.6085   19.9130 C   0  0  2  0  0  0  0  0  0  0  0  0
    8.4628  -12.1917   19.6542 C   0  0  0  0  0  0  0  0  0  0  0  0
    8.0595  -14.4846   18.7334 C   0  0  0  0  0  0  0  0  0  0  0  0
    9.3403  -15.0027   18.2594 C   0  0  2  0  0  0  0  0  0  0  0  0
    9.3197  -15.8469   17.1129 N   0  0  0  0  0  0  0  0  0  0  0  0
   10.1644  -15.6427   19.3129 C   0  0  0  0  0  0  0  0  0  0  0  0
   10.0421  -16.8857   19.5871 O   0  0  0  0  0  0  0  0  0  0  0  0
   11.1329  -14.9307   20.0766 N   0  0  0  0  0  0  0  0  0  0  0  0
   11.9318  -15.6187   21.0683 C   0  0  1  0  0  0  0  0  0  0  0  0
   13.2591  -14.8894   21.1517 C   0  0  0  0  0  0  0  0  0  0  0  0
   14.0403  -14.9977   19.9051 C   0  0  0  0  0  0  0  0  0  0  0  0
   14.9132  -16.0235   19.6206 C   0  0  0  0  0  0  0  0  0  0  0  0
   15.6233  -16.1018   18.4565 C   0  0  0  0  0  0  0  0  0  0  0  0
   15.4695  -15.1003   17.4941 C   0  0  0  0  0  0  0  0  0  0  0  0
   14.6055  -14.0606   17.7459 C   0  0  0  0  0  0  0  0  0  0  0  0
   13.9068  -14.0111   18.9253 C   0  0  0  0  0  0  0  0  0  0  0  0
   11.2586  -15.7308   22.3618 C   0  0  0  0  0  0  0  0  0  0  0  0
   11.8869  -16.4326   23.3842 O   0  0  0  0  0  0  0  0  0  0  0  0
   10.1390  -15.2362   22.6285 O   0  0  0  0  0  0  0  0  0  0  0  0
  2  1  1  1
  2  4  1  0
  3  2  1  0
  4  5  1  6
  6  7  2  0
  6  4  1  0
  9 11  1  0
  9  8  1  6
 10  9  1  0
 12 11  1  1
 12 13  1  0
 13  6  1  0
 14 12  1  0
 15 14  2  0
 16 14  1  0
 17 16  1  0
 18 19  1  0
 17 18  1  1
 19 24  2  0
 20 21  2  0
 20 19  1  0
 21 22  1  0
 22 23  2  0
 24 23  1  0
 25 17  1  0
 25 26  1  0
 27 25  2  0
M  END
$$$$
