TLF.pdb
     RDKit          3D

 27 27  0  0  1  0  0  0  0  0999 V2000
    6.6602  -21.2912   22.9774 C   0  0  0  0  0  0  0  0  0  0  0  0
    7.3647  -19.9691   22.7911 C   0  0  1  0  0  0  0  0  0  0  0  0
    8.7216  -20.1104   23.0759 O   0  0  0  0  0  0  0  0  0  0  0  0
    7.1550  -19.4001   21.4055 C   0  0  2  0  0  0  0  0  0  0  0  0
    7.7337  -20.3385   20.4622 N   0  0  0  0  0  0  0  0  0  0  0  0
    7.8710  -18.1009   21.3094 C   0  0  0  0  0  0  0  0  0  0  0  0
    9.0487  -18.1208   20.8141 O   0  0  0  0  0  0  0  0  0  0  0  0
    6.8842  -12.0220   20.6338 C   0  0  0  0  0  0  0  0  0  0  0  0
    7.7911  -13.1954   20.8244 C   0  0  2  0  0  0  0  0  0  0  0  0
    8.8350  -13.2973   19.7233 C   0  0  0  0  0  0  0  0  0  0  0  0
    7.1702  -14.4851   21.1674 C   0  0  0  0  0  0  0  0  0  0  0  0
    7.9775  -15.6467   21.5314 C   0  0  2  0  0  0  0  0  0  0  0  0
    7.2935  -16.8777   21.7420 N   0  0  0  0  0  0  0  0  0  0  0  0
    8.9044  -15.4117   22.6647 C   0  0  0  0  0  0  0  0  0  0  0  0
    9.5443  -14.3108   22.7808 O   0  0  0  0  0  0  0  0  0  0  0  0
    9.1397  -16.3774   23.6846 N   0  0  0  0  0  0  0  0  0  0  0  0
    9.1402  -15.9843   25.0776 C   0  0  1  0  0  0  0  0  0  0  0  0
    7.7202  -15.5791   25.4241 C   0  0  0  0  0  0  0  0  0  0  0  0
    7.5911  -14.1296   25.6650 C   0  0  0  0  0  0  0  0  0  0  0  0
    6.3920  -13.4586   25.7490 C   0  0  0  0  0  0  0  0  0  0  0  0
    6.2997  -12.1149   25.9758 C   0  0  0  0  0  0  0  0  0  0  0  0
    7.4696  -11.3669   26.1329 C   0  0  0  0  0  0  0  0  0  0  0  0
    8.6849  -12.0056   26.0547 C   0  0  0  0  0  0  0  0  0  0  0  0
    8.7436  -13.3567   25.8258 C   0  0  0  0  0  0  0  0  0  0  0  0
    9.6703  -17.0227   25.9605 C   0  0  0  0  0  0  0  0  0  0  0  0
   10.0709  -18.2325   25.4050 O   0  0  0  0  0  0  0  0  0  0  0  0
    9.7948  -16.9084   27.2017 O   0  0  0  0  0  0  0  0  0  0  0  0
  2  1  1  6
  2  4  1  0
  3  2  1  0
  4  5  1  6
  6  7  2  0
  6  4  1  0
  9 11  1  0
  9  8  1  6
 10  9  1  0
 12 11  1  1
 12 13  1  0
 13  6  1  0
 14 12  1  0
 15 14  2  0
 16 14  1  0
 17 16  1  0
 18 19  1  0
 17 18  1  1
 19 24  2  0
 20 21  2  0
 20 19  1  0
 21 22  1  0
 22 23  2  0
 24 23  1  0
 25 17  1  0
 25 26  1  0
 27 25  2  0
M  END
$$$$
