TLF.pdb
     RDKit          3D

 27 27  0  0  1  0  0  0  0  0999 V2000
    6.9480  -18.2223   19.0788 C   0  0  0  0  0  0  0  0  0  0  0  0
    7.6125  -17.5972   20.2815 C   0  0  1  0  0  0  0  0  0  0  0  0
    8.9526  -17.9762   20.3334 O   0  0  0  0  0  0  0  0  0  0  0  0
    7.4712  -16.0914   20.2943 C   0  0  2  0  0  0  0  0  0  0  0  0
    8.1947  -15.5809   19.1449 N   0  0  0  0  0  0  0  0  0  0  0  0
    8.0895  -15.5643   21.5392 C   0  0  0  0  0  0  0  0  0  0  0  0
    9.3139  -15.2049   21.4736 O   0  0  0  0  0  0  0  0  0  0  0  0
    7.7936  -11.9102   24.5267 C   0  0  0  0  0  0  0  0  0  0  0  0
    6.7411  -12.9186   24.8603 C   0  0  2  0  0  0  0  0  0  0  0  0
    5.8692  -12.4728   26.0237 C   0  0  0  0  0  0  0  0  0  0  0  0
    7.1531  -14.3293   24.9407 C   0  0  0  0  0  0  0  0  0  0  0  0
    8.0086  -14.9326   23.9220 C   0  0  2  0  0  0  0  0  0  0  0  0
    7.3724  -15.4548   22.7601 N   0  0  0  0  0  0  0  0  0  0  0  0
    8.9573  -15.9444   24.4465 C   0  0  0  0  0  0  0  0  0  0  0  0
    8.7940  -17.1909   24.2124 O   0  0  0  0  0  0  0  0  0  0  0  0
   10.0960  -15.6038   25.2309 N   0  0  0  0  0  0  0  0  0  0  0  0
   11.0271  -16.6289   25.6518 C   0  0  1  0  0  0  0  0  0  0  0  0
   12.0621  -15.9535   26.5311 C   0  0  0  0  0  0  0  0  0  0  0  0
   11.4866  -15.4487   27.7920 C   0  0  0  0  0  0  0  0  0  0  0  0
   11.5095  -16.1328   28.9865 C   0  0  0  0  0  0  0  0  0  0  0  0
   10.9714  -15.6414   30.1416 C   0  0  0  0  0  0  0  0  0  0  0  0
   10.3628  -14.3834   30.1305 C   0  0  0  0  0  0  0  0  0  0  0  0
   10.3223  -13.6728   28.9539 C   0  0  0  0  0  0  0  0  0  0  0  0
   10.8721  -14.1944   27.8106 C   0  0  0  0  0  0  0  0  0  0  0  0
   10.3696  -17.7589   26.3072 C   0  0  0  0  0  0  0  0  0  0  0  0
   11.1180  -18.8955   26.5909 O   0  0  0  0  0  0  0  0  0  0  0  0
    9.1622  -17.7866   26.6400 O   0  0  0  0  0  0  0  0  0  0  0  0
  2  1  1  6
  2  4  1  0
  3  2  1  0
  4  5  1  6
  6  7  2  0
  6  4  1  0
  9 11  1  0
  9  8  1  1
 10  9  1  0
 12 11  1  1
 12 13  1  0
 13  6  1  0
 14 12  1  0
 15 14  2  0
 16 14  1  0
 17 16  1  0
 18 19  1  0
 17 18  1  1
 19 24  2  0
 20 21  2  0
 20 19  1  0
 21 22  1  0
 22 23  2  0
 24 23  1  0
 25 17  1  0
 25 26  1  0
 27 25  2  0
M  END
$$$$
