TLF.pdb
     RDKit          3D

 27 27  0  0  1  0  0  0  0  0999 V2000
   10.1454  -19.8098   20.9871 C   0  0  0  0  0  0  0  0  0  0  0  0
   11.3145  -19.1758   20.2729 C   0  0  1  0  0  0  0  0  0  0  0  0
   11.8892  -20.0939   19.3960 O   0  0  0  0  0  0  0  0  0  0  0  0
   10.9229  -17.9052   19.5519 C   0  0  2  0  0  0  0  0  0  0  0  0
   12.1168  -17.3890   18.9090 N   0  0  0  0  0  0  0  0  0  0  0  0
   10.4369  -16.9188   20.5523 C   0  0  0  0  0  0  0  0  0  0  0  0
   11.2897  -16.4763   21.3948 O   0  0  0  0  0  0  0  0  0  0  0  0
    8.8306  -12.6359   20.1615 C   0  0  0  0  0  0  0  0  0  0  0  0
    7.7453  -13.6601   20.0661 C   0  0  2  0  0  0  0  0  0  0  0  0
    6.4278  -13.0569   19.6045 C   0  0  0  0  0  0  0  0  0  0  0  0
    7.6000  -14.6023   21.1874 C   0  0  0  0  0  0  0  0  0  0  0  0
    8.6782  -15.5143   21.5611 C   0  0  2  0  0  0  0  0  0  0  0  0
    9.0894  -16.4721   20.5910 N   0  0  0  0  0  0  0  0  0  0  0  0
    8.4700  -16.2023   22.8580 C   0  0  0  0  0  0  0  0  0  0  0  0
    8.2310  -17.4573   22.9121 O   0  0  0  0  0  0  0  0  0  0  0  0
    8.5234  -15.5258   24.1099 N   0  0  0  0  0  0  0  0  0  0  0  0
    8.3077  -16.2520   25.3433 C   0  0  1  0  0  0  0  0  0  0  0  0
    8.6504  -15.3074   26.4794 C   0  0  0  0  0  0  0  0  0  0  0  0
    7.8812  -14.0502   26.4180 C   0  0  0  0  0  0  0  0  0  0  0  0
    6.5258  -13.9558   26.6397 C   0  0  0  0  0  0  0  0  0  0  0  0
    5.8371  -12.7779   26.5794 C   0  0  0  0  0  0  0  0  0  0  0  0
    6.5251  -11.5991   26.2790 C   0  0  0  0  0  0  0  0  0  0  0  0
    7.8800  -11.6575   26.0517 C   0  0  0  0  0  0  0  0  0  0  0  0
    8.5426  -12.8565   26.1198 C   0  0  0  0  0  0  0  0  0  0  0  0
    6.9584  -16.8062   25.4475 C   0  0  0  0  0  0  0  0  0  0  0  0
    6.6894  -17.7270   26.4536 O   0  0  0  0  0  0  0  0  0  0  0  0
    6.0061  -16.5128   24.6883 O   0  0  0  0  0  0  0  0  0  0  0  0
  2  1  1  6
  2  4  1  0
  3  2  1  0
  4  5  1  1
  6  7  2  0
  6  4  1  0
  9 11  1  0
  9  8  1  1
 10  9  1  0
 12 11  1  6
 12 13  1  0
 13  6  1  0
 14 12  1  0
 15 14  2  0
 16 14  1  0
 17 16  1  0
 18 19  1  0
 17 18  1  1
 19 24  2  0
 20 21  2  0
 20 19  1  0
 21 22  1  0
 22 23  2  0
 24 23  1  0
 25 17  1  0
 25 26  1  0
 27 25  2  0
M  END
$$$$
