TLF.pdb
     RDKit          3D

 27 27  0  0  1  0  0  0  0  0999 V2000
    9.2301  -20.0394   18.4860 C   0  0  0  0  0  0  0  0  0  0  0  0
    9.5079  -18.6568   19.0244 C   0  0  1  0  0  0  0  0  0  0  0  0
    8.7798  -17.7120   18.3036 O   0  0  0  0  0  0  0  0  0  0  0  0
    9.2207  -18.5519   20.5056 C   0  0  2  0  0  0  0  0  0  0  0  0
    7.7964  -18.7633   20.6845 N   0  0  0  0  0  0  0  0  0  0  0  0
    9.5769  -17.1839   20.9655 C   0  0  0  0  0  0  0  0  0  0  0  0
   10.8064  -16.8452   20.8863 O   0  0  0  0  0  0  0  0  0  0  0  0
    9.2161  -13.3525   19.2931 C   0  0  0  0  0  0  0  0  0  0  0  0
    8.0072  -13.5147   20.1581 C   0  0  2  0  0  0  0  0  0  0  0  0
    6.9945  -12.4011   19.9416 C   0  0  0  0  0  0  0  0  0  0  0  0
    8.2258  -13.8435   21.5760 C   0  0  0  0  0  0  0  0  0  0  0  0
    9.0164  -15.0048   21.9759 C   0  0  2  0  0  0  0  0  0  0  0  0
    8.6120  -16.2747   21.4744 N   0  0  0  0  0  0  0  0  0  0  0  0
    9.2393  -15.1140   23.4378 C   0  0  0  0  0  0  0  0  0  0  0  0
    9.8728  -14.2089   24.0816 O   0  0  0  0  0  0  0  0  0  0  0  0
    8.7699  -16.2133   24.2119 N   0  0  0  0  0  0  0  0  0  0  0  0
    8.9492  -16.2258   25.6481 C   0  0  1  0  0  0  0  0  0  0  0  0
    7.5790  -16.0276   26.2674 C   0  0  0  0  0  0  0  0  0  0  0  0
    7.1308  -14.6236   26.2055 C   0  0  0  0  0  0  0  0  0  0  0  0
    5.9590  -14.2062   25.6154 C   0  0  0  0  0  0  0  0  0  0  0  0
    5.5654  -12.8990   25.5740 C   0  0  0  0  0  0  0  0  0  0  0  0
    6.3791  -11.9220   26.1538 C   0  0  0  0  0  0  0  0  0  0  0  0
    7.5569  -12.3042   26.7518 C   0  0  0  0  0  0  0  0  0  0  0  0
    7.9239  -13.6256   26.7767 C   0  0  0  0  0  0  0  0  0  0  0  0
    9.6237  -17.4323   26.1258 C   0  0  0  0  0  0  0  0  0  0  0  0
   10.0200  -18.3888   25.1981 O   0  0  0  0  0  0  0  0  0  0  0  0
    9.8782  -17.6790   27.3273 O   0  0  0  0  0  0  0  0  0  0  0  0
  2  1  1  6
  2  4  1  0
  3  2  1  0
  4  5  1  6
  6  7  2  0
  6  4  1  0
  9 11  1  0
  9  8  1  1
 10  9  1  0
 12 11  1  1
 12 13  1  0
 13  6  1  0
 14 12  1  0
 15 14  2  0
 16 14  1  0
 17 16  1  0
 18 19  1  0
 17 18  1  1
 19 24  2  0
 20 21  2  0
 20 19  1  0
 21 22  1  0
 22 23  2  0
 24 23  1  0
 25 17  1  0
 25 26  1  0
 27 25  2  0
M  END
$$$$
