TLF.pdb
     RDKit          3D

 27 27  0  0  1  0  0  0  0  0999 V2000
    9.7986  -21.0939   20.8823 C   0  0  0  0  0  0  0  0  0  0  0  0
    9.9016  -19.6897   21.4268 C   0  0  1  0  0  0  0  0  0  0  0  0
   10.9540  -19.6099   22.3369 O   0  0  0  0  0  0  0  0  0  0  0  0
   10.0516  -18.6605   20.3286 C   0  0  2  0  0  0  0  0  0  0  0  0
   11.3144  -18.9213   19.6632 N   0  0  0  0  0  0  0  0  0  0  0  0
   10.0894  -17.3077   20.9438 C   0  0  0  0  0  0  0  0  0  0  0  0
   11.2408  -16.7879   21.1356 O   0  0  0  0  0  0  0  0  0  0  0  0
    6.6809  -12.4082   20.8159 C   0  0  0  0  0  0  0  0  0  0  0  0
    7.9068  -13.2602   20.9012 C   0  0  2  0  0  0  0  0  0  0  0  0
    8.4876  -13.5669   19.5297 C   0  0  0  0  0  0  0  0  0  0  0  0
    7.8612  -14.4284   21.7954 C   0  0  0  0  0  0  0  0  0  0  0  0
    9.0046  -15.3266   21.9346 C   0  0  2  0  0  0  0  0  0  0  0  0
    8.9122  -16.6035   21.3111 N   0  0  0  0  0  0  0  0  0  0  0  0
    9.4699  -15.5061   23.3311 C   0  0  0  0  0  0  0  0  0  0  0  0
   10.6530  -15.1731   23.6839 O   0  0  0  0  0  0  0  0  0  0  0  0
    8.6456  -16.0495   24.3573 N   0  0  0  0  0  0  0  0  0  0  0  0
    9.1398  -16.1536   25.7138 C   0  0  1  0  0  0  0  0  0  0  0  0
    7.9972  -15.7656   26.6326 C   0  0  0  0  0  0  0  0  0  0  0  0
    7.6215  -14.3457   26.4954 C   0  0  0  0  0  0  0  0  0  0  0  0
    8.4107  -13.2902   26.8931 C   0  0  0  0  0  0  0  0  0  0  0  0
    8.0403  -11.9831   26.7522 C   0  0  0  0  0  0  0  0  0  0  0  0
    6.8022  -11.6822   26.1781 C   0  0  0  0  0  0  0  0  0  0  0  0
    5.9886  -12.7128   25.7697 C   0  0  0  0  0  0  0  0  0  0  0  0
    6.3899  -14.0152   25.9252 C   0  0  0  0  0  0  0  0  0  0  0  0
    9.6946  -17.4724   26.0164 C   0  0  0  0  0  0  0  0  0  0  0  0
    9.6799  -18.4476   25.0258 O   0  0  0  0  0  0  0  0  0  0  0  0
   10.1916  -17.8015   27.1182 O   0  0  0  0  0  0  0  0  0  0  0  0
  2  1  1  6
  2  4  1  0
  3  2  1  0
  4  5  1  1
  6  7  2  0
  6  4  1  0
  9 11  1  0
  9  8  1  6
 10  9  1  0
 12 11  1  1
 12 13  1  0
 13  6  1  0
 14 12  1  0
 15 14  2  0
 16 14  1  0
 17 16  1  0
 18 19  1  0
 17 18  1  1
 19 24  2  0
 20 21  2  0
 20 19  1  0
 21 22  1  0
 22 23  2  0
 24 23  1  0
 25 17  1  0
 25 26  1  0
 27 25  2  0
M  END
$$$$
