SFL.pdb
     RDKit          3D

 26 26  0  0  1  0  0  0  0  0999 V2000
   25.5299  -18.1531  -19.5892 O   0  0  0  0  0  0  0  0  0  0  0  0
   26.2951  -18.0414  -18.4375 C   0  0  0  0  0  0  0  0  0  0  0  0
   27.1991  -19.2336  -18.2356 C   0  0  2  0  0  0  0  0  0  0  0  0
   27.0418  -20.1105  -19.3707 N   0  0  0  0  0  0  0  0  0  0  0  0
   26.7258  -19.9226  -16.9836 C   0  0  0  0  0  0  0  0  0  0  0  0
   26.1432  -21.0329  -17.1037 O   0  0  0  0  0  0  0  0  0  0  0  0
   26.9253  -19.3468  -15.7025 N   0  0  0  0  0  0  0  0  0  0  0  0
   26.3626  -19.9387  -14.5077 C   0  0  1  0  0  0  0  0  0  0  0  0
   27.2203  -19.6427  -13.2956 C   0  0  0  0  0  0  0  0  0  0  0  0
   26.6727  -20.1307  -12.0362 C   0  0  0  0  0  0  0  0  0  0  0  0
   26.7644  -21.4698  -11.7221 C   0  0  0  0  0  0  0  0  0  0  0  0
   26.2444  -21.9625  -10.5183 C   0  0  0  0  0  0  0  0  0  0  0  0
   25.6319  -21.1056   -9.6313 C   0  0  0  0  0  0  0  0  0  0  0  0
   25.5335  -19.7630   -9.9336 C   0  0  0  0  0  0  0  0  0  0  0  0
   26.0586  -19.2890  -11.1403 C   0  0  0  0  0  0  0  0  0  0  0  0
   24.9669  -19.5222  -14.3808 C   0  0  0  0  0  0  0  0  0  0  0  0
   24.6615  -18.3136  -14.5301 O   0  0  0  0  0  0  0  0  0  0  0  0
   22.2166  -19.6639  -17.5492 C   0  0  0  0  0  0  0  0  0  0  0  0
   22.0175  -20.4839  -16.2641 C   0  0  2  0  0  0  0  0  0  0  0  0
   20.7999  -21.3169  -16.4832 C   0  0  0  0  0  0  0  0  0  0  0  0
   21.9519  -19.4997  -15.1601 C   0  0  0  0  0  0  0  0  0  0  0  0
   22.5376  -19.9859  -13.8376 C   0  0  2  0  0  0  0  0  0  0  0  0
   23.8834  -20.4034  -14.0927 N   0  0  0  0  0  0  0  0  0  0  0  0
   21.6707  -20.9524  -13.1779 C   0  0  0  0  0  0  0  0  0  0  0  0
   20.4166  -20.5827  -12.7472 O   0  0  0  0  0  0  0  0  0  0  0  0
   21.9953  -22.1327  -12.9678 O   0  0  0  0  0  0  0  0  0  0  0  0
  2  1  1  0
  3  2  1  0
  3  5  1  0
  3  4  1  6
  5  6  2  0
  7  8  1  0
  7  5  1  0
  9 10  1  0
  8  9  1  1
 10 15  2  0
 11 12  2  0
 11 10  1  0
 12 13  1  0
 13 14  2  0
 15 14  1  0
 16  8  1  0
 16 17  2  0
 19 18  1  6
 19 21  1  0
 20 19  1  0
 22 21  1  6
 22 23  1  0
 22 24  1  0
 23 16  1  0
 24 25  1  0
 26 24  2  0
M  END
$$$$
