SFL.pdb
     RDKit          3D

 26 26  0  0  1  0  0  0  0  0999 V2000
   25.9170  -19.5658  -16.9337 O   0  0  0  0  0  0  0  0  0  0  0  0
   26.3648  -20.7855  -17.4200 C   0  0  0  0  0  0  0  0  0  0  0  0
   27.3593  -21.4393  -16.4910 C   0  0  2  0  0  0  0  0  0  0  0  0
   27.7460  -22.7036  -17.0692 N   0  0  0  0  0  0  0  0  0  0  0  0
   26.6417  -21.6675  -15.1875 C   0  0  0  0  0  0  0  0  0  0  0  0
   25.7988  -22.6020  -15.1321 O   0  0  0  0  0  0  0  0  0  0  0  0
   26.8999  -20.8599  -14.0501 N   0  0  0  0  0  0  0  0  0  0  0  0
   26.1200  -20.9842  -12.8373 C   0  0  1  0  0  0  0  0  0  0  0  0
   26.8634  -20.4116  -11.6490 C   0  0  0  0  0  0  0  0  0  0  0  0
   26.1564  -20.5334  -10.3804 C   0  0  0  0  0  0  0  0  0  0  0  0
   26.6910  -19.9711   -9.2411 C   0  0  0  0  0  0  0  0  0  0  0  0
   26.0306  -20.0762   -8.0101 C   0  0  0  0  0  0  0  0  0  0  0  0
   24.8313  -20.7481   -7.9278 C   0  0  0  0  0  0  0  0  0  0  0  0
   24.2854  -21.3155   -9.0607 C   0  0  0  0  0  0  0  0  0  0  0  0
   24.9591  -21.2004  -10.2812 C   0  0  0  0  0  0  0  0  0  0  0  0
   24.7953  -20.4075  -13.0608 C   0  0  0  0  0  0  0  0  0  0  0  0
   24.6826  -19.1801  -13.3003 O   0  0  0  0  0  0  0  0  0  0  0  0
   22.2353  -19.5949  -16.0917 C   0  0  0  0  0  0  0  0  0  0  0  0
   22.4125  -21.0607  -15.6630 C   0  0  2  0  0  0  0  0  0  0  0  0
   21.9770  -21.8917  -16.8225 C   0  0  0  0  0  0  0  0  0  0  0  0
   21.6347  -21.2155  -14.4130 C   0  0  0  0  0  0  0  0  0  0  0  0
   22.2718  -20.5760  -13.1828 C   0  0  2  0  0  0  0  0  0  0  0  0
   23.5763  -21.1466  -13.0303 N   0  0  0  0  0  0  0  0  0  0  0  0
   21.3962  -20.6346  -12.0205 C   0  0  0  0  0  0  0  0  0  0  0  0
   21.6808  -21.4855  -10.9765 O   0  0  0  0  0  0  0  0  0  0  0  0
   20.3707  -19.9444  -11.8996 O   0  0  0  0  0  0  0  0  0  0  0  0
  2  1  1  0
  3  2  1  0
  3  5  1  0
  3  4  1  6
  5  6  2  0
  7  8  1  0
  7  5  1  0
  9 10  1  0
  8  9  1  1
 10 15  2  0
 11 12  2  0
 11 10  1  0
 12 13  1  0
 13 14  2  0
 15 14  1  0
 16  8  1  0
 16 17  2  0
 19 18  1  6
 19 21  1  0
 20 19  1  0
 22 21  1  6
 22 23  1  0
 22 24  1  0
 23 16  1  0
 24 25  1  0
 26 24  2  0
M  END
$$$$
