SFL.pdb
     RDKit          3D

 26 26  0  0  1  0  0  0  0  0999 V2000
   21.8993  -13.2565  -20.5427 O   0  0  0  0  0  0  0  0  0  0  0  0
   22.2682  -12.4749  -19.4576 C   0  0  0  0  0  0  0  0  0  0  0  0
   23.6805  -12.7580  -19.0048 C   0  0  2  0  0  0  0  0  0  0  0  0
   23.7596  -14.1502  -18.6334 N   0  0  0  0  0  0  0  0  0  0  0  0
   23.9260  -11.8893  -17.8001 C   0  0  0  0  0  0  0  0  0  0  0  0
   23.5107  -12.2964  -16.6828 O   0  0  0  0  0  0  0  0  0  0  0  0
   24.6039  -10.6479  -17.9097 N   0  0  0  0  0  0  0  0  0  0  0  0
   24.8108   -9.7914  -16.7616 C   0  0  1  0  0  0  0  0  0  0  0  0
   26.2845   -9.5265  -16.5365 C   0  0  0  0  0  0  0  0  0  0  0  0
   27.0811  -10.7221  -16.2916 C   0  0  0  0  0  0  0  0  0  0  0  0
   27.1292  -11.2661  -15.0259 C   0  0  0  0  0  0  0  0  0  0  0  0
   27.8889  -12.4140  -14.7659 C   0  0  0  0  0  0  0  0  0  0  0  0
   28.5999  -13.0134  -15.7815 C   0  0  0  0  0  0  0  0  0  0  0  0
   28.5603  -12.4789  -17.0529 C   0  0  0  0  0  0  0  0  0  0  0  0
   27.7963  -11.3322  -17.2938 C   0  0  0  0  0  0  0  0  0  0  0  0
   23.9929   -8.5888  -16.9099 C   0  0  0  0  0  0  0  0  0  0  0  0
   24.0295   -7.9391  -17.9837 O   0  0  0  0  0  0  0  0  0  0  0  0
   19.5472   -6.9297  -18.8614 C   0  0  0  0  0  0  0  0  0  0  0  0
   20.3948   -6.3026  -17.7426 C   0  0  2  0  0  0  0  0  0  0  0  0
   20.9395   -5.0283  -18.2941 C   0  0  0  0  0  0  0  0  0  0  0  0
   21.3877   -7.3317  -17.3594 C   0  0  0  0  0  0  0  0  0  0  0  0
   22.1880   -7.0076  -16.1013 C   0  0  2  0  0  0  0  0  0  0  0  0
   23.1248   -8.0724  -15.9033 N   0  0  0  0  0  0  0  0  0  0  0  0
   21.3261   -6.6814  -14.9737 C   0  0  0  0  0  0  0  0  0  0  0  0
   21.2961   -7.4933  -13.8625 O   0  0  0  0  0  0  0  0  0  0  0  0
   20.5870   -5.6836  -14.9422 O   0  0  0  0  0  0  0  0  0  0  0  0
  2  1  1  0
  3  2  1  0
  3  5  1  0
  3  4  1  1
  5  6  2  0
  7  8  1  0
  7  5  1  0
  9 10  1  0
  8  9  1  6
 10 15  2  0
 11 12  2  0
 11 10  1  0
 12 13  1  0
 13 14  2  0
 15 14  1  0
 16  8  1  0
 16 17  2  0
 19 18  1  6
 19 21  1  0
 20 19  1  0
 22 21  1  6
 22 23  1  0
 22 24  1  0
 23 16  1  0
 24 25  1  0
 26 24  2  0
M  END
$$$$
