SFL.pdb
     RDKit          3D

 26 26  0  0  1  0  0  0  0  0999 V2000
   16.5237  -27.4960   -5.0242 O   0  0  0  0  0  0  0  0  0  0  0  0
   15.6049  -26.5722   -5.5004 C   0  0  0  0  0  0  0  0  0  0  0  0
   16.1444  -25.1625   -5.4680 C   0  0  2  0  0  0  0  0  0  0  0  0
   17.4350  -25.1635   -6.1135 N   0  0  0  0  0  0  0  0  0  0  0  0
   16.2956  -24.7952   -4.0159 C   0  0  0  0  0  0  0  0  0  0  0  0
   17.4615  -24.6908   -3.5505 O   0  0  0  0  0  0  0  0  0  0  0  0
   15.1653  -24.5715   -3.1884 N   0  0  0  0  0  0  0  0  0  0  0  0
   15.3030  -24.1234   -1.8192 C   0  0  1  0  0  0  0  0  0  0  0  0
   14.0632  -23.3863   -1.3585 C   0  0  0  0  0  0  0  0  0  0  0  0
   14.1284  -22.8958    0.0124 C   0  0  0  0  0  0  0  0  0  0  0  0
   14.8734  -21.7733    0.3040 C   0  0  0  0  0  0  0  0  0  0  0  0
   14.9522  -21.2839    1.6142 C   0  0  0  0  0  0  0  0  0  0  0  0
   14.2801  -21.9259    2.6303 C   0  0  0  0  0  0  0  0  0  0  0  0
   13.5309  -23.0505    2.3518 C   0  0  0  0  0  0  0  0  0  0  0  0
   13.4639  -23.5248    1.0376 C   0  0  0  0  0  0  0  0  0  0  0  0
   15.6808  -25.2600   -0.9809 C   0  0  0  0  0  0  0  0  0  0  0  0
   15.1785  -26.3897   -1.1999 O   0  0  0  0  0  0  0  0  0  0  0  0
   18.5582  -28.1329   -0.8689 C   0  0  0  0  0  0  0  0  0  0  0  0
   18.9970  -26.7083   -0.4929 C   0  0  2  0  0  0  0  0  0  0  0  0
   20.4802  -26.6727   -0.6462 C   0  0  0  0  0  0  0  0  0  0  0  0
   18.4701  -26.4668    0.8693 C   0  0  0  0  0  0  0  0  0  0  0  0
   16.9557  -26.2965    0.9457 C   0  0  2  0  0  0  0  0  0  0  0  0
   16.6055  -25.1933    0.1025 N   0  0  0  0  0  0  0  0  0  0  0  0
   16.4803  -26.2406    2.3211 C   0  0  0  0  0  0  0  0  0  0  0  0
   16.6404  -25.0948    3.0672 O   0  0  0  0  0  0  0  0  0  0  0  0
   15.9187  -27.1905    2.8913 O   0  0  0  0  0  0  0  0  0  0  0  0
  2  1  1  0
  3  2  1  0
  3  5  1  0
  3  4  1  6
  5  6  2  0
  7  8  1  0
  7  5  1  0
  9 10  1  0
  8  9  1  1
 10 15  2  0
 11 12  2  0
 11 10  1  0
 12 13  1  0
 13 14  2  0
 15 14  1  0
 16  8  1  0
 16 17  2  0
 19 18  1  1
 19 21  1  0
 20 19  1  0
 22 21  1  1
 22 23  1  0
 22 24  1  0
 23 16  1  0
 24 25  1  0
 26 24  2  0
M  END
$$$$
