SFL.pdb
     RDKit          3D

 26 26  0  0  1  0  0  0  0  0999 V2000
   25.8036  -20.0664  -17.1948 O   0  0  0  0  0  0  0  0  0  0  0  0
   27.0053  -19.8864  -16.5256 C   0  0  0  0  0  0  0  0  0  0  0  0
   27.5642  -21.1857  -15.9976 C   0  0  2  0  0  0  0  0  0  0  0  0
   27.2818  -22.2189  -16.9646 N   0  0  0  0  0  0  0  0  0  0  0  0
   26.8376  -21.4729  -14.7108 C   0  0  0  0  0  0  0  0  0  0  0  0
   25.8714  -22.2804  -14.7446 O   0  0  0  0  0  0  0  0  0  0  0  0
   27.2218  -20.8575  -13.4916 N   0  0  0  0  0  0  0  0  0  0  0  0
   26.4370  -21.0071  -12.2849 C   0  0  1  0  0  0  0  0  0  0  0  0
   27.1597  -20.4260  -11.0880 C   0  0  0  0  0  0  0  0  0  0  0  0
   26.3710  -20.3992   -9.8626 C   0  0  0  0  0  0  0  0  0  0  0  0
   26.6586  -19.4735   -8.8826 C   0  0  0  0  0  0  0  0  0  0  0  0
   25.9155  -19.4294   -7.6959 C   0  0  0  0  0  0  0  0  0  0  0  0
   24.8826  -20.3182   -7.4973 C   0  0  0  0  0  0  0  0  0  0  0  0
   24.5845  -21.2498   -8.4703 C   0  0  0  0  0  0  0  0  0  0  0  0
   25.3374  -21.2790   -9.6489 C   0  0  0  0  0  0  0  0  0  0  0  0
   25.1013  -20.4585  -12.5134 C   0  0  0  0  0  0  0  0  0  0  0  0
   24.9710  -19.3729  -13.1307 O   0  0  0  0  0  0  0  0  0  0  0  0
   20.0755  -21.5739  -13.9408 C   0  0  0  0  0  0  0  0  0  0  0  0
   21.0556  -20.5045  -14.4498 C   0  0  2  0  0  0  0  0  0  0  0  0
   20.9150  -20.4802  -15.9345 C   0  0  0  0  0  0  0  0  0  0  0  0
   22.3845  -20.8861  -13.9206 C   0  0  0  0  0  0  0  0  0  0  0  0
   22.5759  -20.6236  -12.4297 C   0  0  2  0  0  0  0  0  0  0  0  0
   23.8898  -21.0737  -12.0807 N   0  0  0  0  0  0  0  0  0  0  0  0
   21.4752  -21.1516  -11.6356 C   0  0  0  0  0  0  0  0  0  0  0  0
   21.5886  -22.3749  -11.0147 O   0  0  0  0  0  0  0  0  0  0  0  0
   20.3991  -20.5531  -11.4727 O   0  0  0  0  0  0  0  0  0  0  0  0
  2  1  1  0
  3  2  1  0
  3  5  1  0
  3  4  1  6
  5  6  2  0
  7  8  1  0
  7  5  1  0
  9 10  1  0
  8  9  1  1
 10 15  2  0
 11 12  2  0
 11 10  1  0
 12 13  1  0
 13 14  2  0
 15 14  1  0
 16  8  1  0
 16 17  2  0
 19 18  1  1
 19 21  1  0
 20 19  1  0
 22 21  1  6
 22 23  1  0
 22 24  1  0
 23 16  1  0
 24 25  1  0
 26 24  2  0
M  END
$$$$
