SFL.pdb
     RDKit          3D

 26 26  0  0  1  0  0  0  0  0999 V2000
   27.0001  -19.7778  -14.1651 O   0  0  0  0  0  0  0  0  0  0  0  0
   28.2571  -19.3551  -13.7581 C   0  0  0  0  0  0  0  0  0  0  0  0
   29.0937  -20.4904  -13.2190 C   0  0  2  0  0  0  0  0  0  0  0  0
   28.9559  -21.6118  -14.1166 N   0  0  0  0  0  0  0  0  0  0  0  0
   28.5246  -20.8384  -11.8695 C   0  0  0  0  0  0  0  0  0  0  0  0
   27.8068  -21.8695  -11.7784 O   0  0  0  0  0  0  0  0  0  0  0  0
   28.7831  -20.0356  -10.7288 N   0  0  0  0  0  0  0  0  0  0  0  0
   28.2095  -20.3448   -9.4365 C   0  0  1  0  0  0  0  0  0  0  0  0
   28.9109  -19.5836   -8.3315 C   0  0  0  0  0  0  0  0  0  0  0  0
   28.4157  -19.8737   -6.9918 C   0  0  0  0  0  0  0  0  0  0  0  0
   28.8751  -20.9844   -6.3169 C   0  0  0  0  0  0  0  0  0  0  0  0
   28.4129  -21.2845   -5.0291 C   0  0  0  0  0  0  0  0  0  0  0  0
   27.4877  -20.4651   -4.4216 C   0  0  0  0  0  0  0  0  0  0  0  0
   27.0198  -19.3503   -5.0862 C   0  0  0  0  0  0  0  0  0  0  0  0
   27.4927  -19.0664   -6.3717 C   0  0  0  0  0  0  0  0  0  0  0  0
   26.7635  -20.1369   -9.4944 C   0  0  0  0  0  0  0  0  0  0  0  0
   26.3083  -19.0126   -9.8185 O   0  0  0  0  0  0  0  0  0  0  0  0
   23.7119  -19.8330  -11.9460 C   0  0  0  0  0  0  0  0  0  0  0  0
   24.3081  -21.2315  -11.7174 C   0  0  2  0  0  0  0  0  0  0  0  0
   23.9112  -22.0539  -12.8967 C   0  0  0  0  0  0  0  0  0  0  0  0
   23.8000  -21.6798  -10.4012 C   0  0  0  0  0  0  0  0  0  0  0  0
   24.3746  -20.9253   -9.2058 C   0  0  2  0  0  0  0  0  0  0  0  0
   25.7907  -21.1385   -9.2050 N   0  0  0  0  0  0  0  0  0  0  0  0
   23.6690  -21.2384   -7.9709 C   0  0  0  0  0  0  0  0  0  0  0  0
   22.4531  -20.6543   -7.6964 O   0  0  0  0  0  0  0  0  0  0  0  0
   24.1035  -22.0257   -7.1141 O   0  0  0  0  0  0  0  0  0  0  0  0
  2  1  1  0
  3  2  1  0
  3  5  1  0
  3  4  1  6
  5  6  2  0
  7  8  1  0
  7  5  1  0
  9 10  1  0
  8  9  1  1
 10 15  2  0
 11 12  2  0
 11 10  1  0
 12 13  1  0
 13 14  2  0
 15 14  1  0
 16  8  1  0
 16 17  2  0
 19 18  1  6
 19 21  1  0
 20 19  1  0
 22 21  1  6
 22 23  1  0
 22 24  1  0
 23 16  1  0
 24 25  1  0
 26 24  2  0
M  END
$$$$
