VSG.pdb
     RDKit          3D

 18 17  0  0  1  0  0  0  0  0999 V2000
    6.9273  -16.2118   19.8987 C   0  0  0  0  0  0  0  0  0  0  0  0
    7.4689  -15.0741   19.0617 C   0  0  1  0  0  0  0  0  0  0  0  0
    6.5670  -14.8734   17.8671 C   0  0  0  0  0  0  0  0  0  0  0  0
    7.5718  -13.7938   19.8432 C   0  0  2  0  0  0  0  0  0  0  0  0
    8.0324  -12.7389   18.9575 N   0  0  0  0  0  0  0  0  0  0  0  0
    8.5150  -13.9132   20.9902 C   0  0  0  0  0  0  0  0  0  0  0  0
    9.7526  -13.8391   20.8184 O   0  0  0  0  0  0  0  0  0  0  0  0
    7.0211  -14.7532   24.9758 O   0  0  0  0  0  0  0  0  0  0  0  0
    8.1326  -13.9797   24.7487 C   0  0  0  0  0  0  0  0  0  0  0  0
    8.8468  -14.3027   23.4658 C   0  0  2  0  0  0  0  0  0  0  0  0
    8.0309  -14.1126   22.2966 N   0  0  0  0  0  0  0  0  0  0  0  0
    9.4926  -15.6259   23.4840 C   0  0  0  0  0  0  0  0  0  0  0  0
    8.8278  -16.6435   23.2185 O   0  0  0  0  0  0  0  0  0  0  0  0
   10.8651  -15.7674   23.7995 N   0  0  0  0  0  0  0  0  0  0  0  0
   11.4937  -17.0728   23.8786 C   0  0  0  0  0  0  0  0  0  0  0  0
   12.8985  -16.9460   24.2942 C   0  0  0  0  0  0  0  0  0  0  0  0
   13.6556  -18.1136   24.4226 O   0  0  0  0  0  0  0  0  0  0  0  0
   13.4235  -15.8209   24.5329 O   0  0  0  0  0  0  0  0  0  0  0  0
  2  1  1  1
  2  3  1  0
  4  2  1  0
  4  5  1  6
  6  4  1  0
  6 11  1  0
  7  6  2  0
  9  8  1  0
 10 11  1  0
 10  9  1  1
 12 10  1  0
 13 12  2  0
 14 12  1  0
 15 14  1  0
 15 16  1  0
 16 18  2  0
 16 17  1  0
M  END
$$$$
