VSG.pdb
     RDKit          3D

 18 17  0  0  1  0  0  0  0  0999 V2000
    7.7308  -12.0737   18.8234 C   0  0  0  0  0  0  0  0  0  0  0  0
    8.8644  -12.9377   19.3300 C   0  0  1  0  0  0  0  0  0  0  0  0
    8.5554  -13.3707   20.7435 C   0  0  0  0  0  0  0  0  0  0  0  0
    9.0873  -14.1463   18.4641 C   0  0  2  0  0  0  0  0  0  0  0  0
    7.8648  -14.9297   18.4277 N   0  0  0  0  0  0  0  0  0  0  0  0
   10.1979  -15.0002   18.9710 C   0  0  0  0  0  0  0  0  0  0  0  0
    9.9695  -15.9861   19.7075 O   0  0  0  0  0  0  0  0  0  0  0  0
   14.3310  -14.5043   17.5816 O   0  0  0  0  0  0  0  0  0  0  0  0
   13.6965  -15.6638   17.9536 C   0  0  0  0  0  0  0  0  0  0  0  0
   12.6793  -15.4775   19.0448 C   0  0  2  0  0  0  0  0  0  0  0  0
   11.5331  -14.7138   18.6302 N   0  0  0  0  0  0  0  0  0  0  0  0
   13.2643  -14.9673   20.2960 C   0  0  0  0  0  0  0  0  0  0  0  0
   13.1652  -13.7598   20.5793 O   0  0  0  0  0  0  0  0  0  0  0  0
   13.9431  -15.8275   21.1921 N   0  0  0  0  0  0  0  0  0  0  0  0
   14.5782  -15.3208   22.3943 C   0  0  0  0  0  0  0  0  0  0  0  0
   15.2462  -16.4087   23.1239 C   0  0  0  0  0  0  0  0  0  0  0  0
   16.0777  -16.0703   24.1950 O   0  0  0  0  0  0  0  0  0  0  0  0
   15.0849  -17.6215   22.8057 O   0  0  0  0  0  0  0  0  0  0  0  0
  2  1  1  6
  2  3  1  0
  4  2  1  0
  4  5  1  1
  6  4  1  0
  6 11  1  0
  7  6  2  0
  9  8  1  0
 10 11  1  0
 10  9  1  6
 12 10  1  0
 13 12  2  0
 14 12  1  0
 15 14  1  0
 15 16  1  0
 16 18  2  0
 16 17  1  0
M  END
$$$$
