VSG.pdb
     RDKit          3D

 18 17  0  0  1  0  0  0  0  0999 V2000
    8.2099  -13.3221   22.4924 C   0  0  0  0  0  0  0  0  0  0  0  0
    7.9495  -14.7786   22.8071 C   0  0  1  0  0  0  0  0  0  0  0  0
    6.8744  -14.8660   23.8642 C   0  0  0  0  0  0  0  0  0  0  0  0
    7.5318  -15.5561   21.5900 C   0  0  2  0  0  0  0  0  0  0  0  0
    7.1997  -16.9122   21.9904 N   0  0  0  0  0  0  0  0  0  0  0  0
    8.6068  -15.6020   20.5596 C   0  0  0  0  0  0  0  0  0  0  0  0
    9.5243  -16.4512   20.6216 O   0  0  0  0  0  0  0  0  0  0  0  0
    8.2763  -14.3725   16.5355 O   0  0  0  0  0  0  0  0  0  0  0  0
    9.2421  -13.7661   17.3004 C   0  0  0  0  0  0  0  0  0  0  0  0
    9.6538  -14.5646   18.5058 C   0  0  2  0  0  0  0  0  0  0  0  0
    8.6124  -14.6867   19.4905 N   0  0  0  0  0  0  0  0  0  0  0  0
   10.9237  -14.1064   19.0935 C   0  0  0  0  0  0  0  0  0  0  0  0
   10.9270  -13.1598   19.9009 O   0  0  0  0  0  0  0  0  0  0  0  0
   12.1520  -14.7242   18.7575 N   0  0  0  0  0  0  0  0  0  0  0  0
   13.4082  -14.2716   19.3255 C   0  0  0  0  0  0  0  0  0  0  0  0
   14.5313  -15.0507   18.7836 C   0  0  0  0  0  0  0  0  0  0  0  0
   15.5851  -14.3570   18.1824 O   0  0  0  0  0  0  0  0  0  0  0  0
   14.5601  -16.3128   18.8505 O   0  0  0  0  0  0  0  0  0  0  0  0
  2  1  1  6
  2  3  1  0
  4  2  1  0
  4  5  1  1
  6  4  1  0
  6 11  1  0
  7  6  2  0
  9  8  1  0
 10 11  1  0
 10  9  1  6
 12 10  1  0
 13 12  2  0
 14 12  1  0
 15 14  1  0
 15 16  1  0
 16 18  2  0
 16 17  1  0
M  END
$$$$
