VSG.pdb
     RDKit          3D

 18 17  0  0  1  0  0  0  0  0999 V2000
   11.6547  -20.4058   20.3346 C   0  0  0  0  0  0  0  0  0  0  0  0
   11.5541  -19.1711   21.2025 C   0  0  1  0  0  0  0  0  0  0  0  0
   12.9379  -18.6000   21.4028 C   0  0  0  0  0  0  0  0  0  0  0  0
   10.6541  -18.1271   20.6020 C   0  0  2  0  0  0  0  0  0  0  0  0
   11.1806  -17.7441   19.3037 N   0  0  0  0  0  0  0  0  0  0  0  0
   10.5513  -16.9155   21.4626 C   0  0  0  0  0  0  0  0  0  0  0  0
   11.3334  -15.9497   21.3134 O   0  0  0  0  0  0  0  0  0  0  0  0
    7.3099  -16.5432   24.2651 O   0  0  0  0  0  0  0  0  0  0  0  0
    7.9615  -15.4622   23.7245 C   0  0  0  0  0  0  0  0  0  0  0  0
    9.3989  -15.7306   23.3754 C   0  0  2  0  0  0  0  0  0  0  0  0
    9.5677  -16.8320   22.4658 N   0  0  0  0  0  0  0  0  0  0  0  0
   10.2664  -15.8493   24.5592 C   0  0  0  0  0  0  0  0  0  0  0  0
   10.3671  -14.8954   25.3517 O   0  0  0  0  0  0  0  0  0  0  0  0
   10.9948  -17.0349   24.8184 N   0  0  0  0  0  0  0  0  0  0  0  0
   11.8270  -17.1700   25.9994 C   0  0  0  0  0  0  0  0  0  0  0  0
   11.5327  -18.4300   26.6979 C   0  0  0  0  0  0  0  0  0  0  0  0
   12.3135  -18.7664   27.8072 O   0  0  0  0  0  0  0  0  0  0  0  0
   10.6037  -19.1999   26.3201 O   0  0  0  0  0  0  0  0  0  0  0  0
  2  1  1  6
  2  3  1  0
  4  2  1  0
  4  5  1  6
  6  4  1  0
  6 11  1  0
  7  6  2  0
  9  8  1  0
 10 11  1  0
 10  9  1  1
 12 10  1  0
 13 12  2  0
 14 12  1  0
 15 14  1  0
 15 16  1  0
 16 18  2  0
 16 17  1  0
M  END
$$$$
