VSG.pdb
     RDKit          3D

 18 17  0  0  1  0  0  0  0  0999 V2000
    8.0216  -20.8830   18.3556 C   0  0  0  0  0  0  0  0  0  0  0  0
    8.4833  -19.7610   19.2590 C   0  0  1  0  0  0  0  0  0  0  0  0
    9.7675  -20.1759   19.9369 C   0  0  0  0  0  0  0  0  0  0  0  0
    8.6966  -18.4774   18.5057 C   0  0  2  0  0  0  0  0  0  0  0  0
    9.7193  -18.6897   17.4966 N   0  0  0  0  0  0  0  0  0  0  0  0
    9.1209  -17.3665   19.4031 C   0  0  0  0  0  0  0  0  0  0  0  0
   10.3265  -17.0471   19.5090 O   0  0  0  0  0  0  0  0  0  0  0  0
    6.2421  -15.2640   21.9416 O   0  0  0  0  0  0  0  0  0  0  0  0
    7.2967  -14.6605   21.3022 C   0  0  0  0  0  0  0  0  0  0  0  0
    8.4658  -15.5745   21.0614 C   0  0  2  0  0  0  0  0  0  0  0  0
    8.1698  -16.6502   20.1535 N   0  0  0  0  0  0  0  0  0  0  0  0
    9.0880  -16.0535   22.3070 C   0  0  0  0  0  0  0  0  0  0  0  0
    8.7182  -17.1295   22.8105 O   0  0  0  0  0  0  0  0  0  0  0  0
   10.1067  -15.3106   22.9503 N   0  0  0  0  0  0  0  0  0  0  0  0
   10.6480  -15.7199   24.2329 C   0  0  0  0  0  0  0  0  0  0  0  0
   12.0641  -16.0934   24.1011 C   0  0  0  0  0  0  0  0  0  0  0  0
   12.7766  -16.3963   25.2646 O   0  0  0  0  0  0  0  0  0  0  0  0
   12.6376  -16.1444   22.9755 O   0  0  0  0  0  0  0  0  0  0  0  0
  2  1  1  6
  2  3  1  0
  4  2  1  0
  4  5  1  6
  6  4  1  0
  6 11  1  0
  7  6  2  0
  9  8  1  0
 10 11  1  0
 10  9  1  1
 12 10  1  0
 13 12  2  0
 14 12  1  0
 15 14  1  0
 15 16  1  0
 16 18  2  0
 16 17  1  0
M  END
$$$$
