VSG.pdb
     RDKit          3D

 18 17  0  0  1  0  0  0  0  0999 V2000
    8.4596  -12.7949   18.1751 C   0  0  0  0  0  0  0  0  0  0  0  0
    8.3905  -13.0883   19.6574 C   0  0  1  0  0  0  0  0  0  0  0  0
    7.2464  -12.3065   20.2580 C   0  0  0  0  0  0  0  0  0  0  0  0
    8.2086  -14.5542   19.9378 C   0  0  2  0  0  0  0  0  0  0  0  0
    7.0483  -15.0315   19.2061 N   0  0  0  0  0  0  0  0  0  0  0  0
    8.0144  -14.8258   21.3897 C   0  0  0  0  0  0  0  0  0  0  0  0
    6.9203  -14.5894   21.9498 O   0  0  0  0  0  0  0  0  0  0  0  0
    7.6438  -17.6409   24.6761 O   0  0  0  0  0  0  0  0  0  0  0  0
    7.8538  -17.0713   23.4445 C   0  0  0  0  0  0  0  0  0  0  0  0
    8.9093  -16.0007   23.4414 C   0  0  2  0  0  0  0  0  0  0  0  0
    9.0627  -15.3564   22.1645 N   0  0  0  0  0  0  0  0  0  0  0  0
   10.1960  -16.4593   23.9910 C   0  0  0  0  0  0  0  0  0  0  0  0
   10.9892  -17.0892   23.2684 O   0  0  0  0  0  0  0  0  0  0  0  0
   10.5542  -16.1972   25.3350 N   0  0  0  0  0  0  0  0  0  0  0  0
   11.8391  -16.6070   25.8704 C   0  0  0  0  0  0  0  0  0  0  0  0
   11.7264  -17.9079   26.5465 C   0  0  0  0  0  0  0  0  0  0  0  0
   12.8612  -18.4217   27.1800 O   0  0  0  0  0  0  0  0  0  0  0  0
   10.6420  -18.5575   26.5645 O   0  0  0  0  0  0  0  0  0  0  0  0
  2  1  1  6
  2  3  1  0
  4  2  1  0
  4  5  1  6
  6  4  1  0
  6 11  1  0
  7  6  2  0
  9  8  1  0
 10 11  1  0
 10  9  1  6
 12 10  1  0
 13 12  2  0
 14 12  1  0
 15 14  1  0
 15 16  1  0
 16 18  2  0
 16 17  1  0
M  END
$$$$
