VSG.pdb
     RDKit          3D

 18 17  0  0  1  0  0  0  0  0999 V2000
    7.2913  -14.0268   18.6777 C   0  0  0  0  0  0  0  0  0  0  0  0
    8.1035  -13.9831   19.9530 C   0  0  1  0  0  0  0  0  0  0  0  0
    7.9749  -12.6097   20.5679 C   0  0  0  0  0  0  0  0  0  0  0  0
    7.6641  -15.0271   20.9416 C   0  0  2  0  0  0  0  0  0  0  0  0
    6.2816  -14.7741   21.3082 N   0  0  0  0  0  0  0  0  0  0  0  0
    8.5035  -15.0201   22.1724 C   0  0  0  0  0  0  0  0  0  0  0  0
    8.1704  -14.3516   23.1769 O   0  0  0  0  0  0  0  0  0  0  0  0
    9.6802  -17.8831   24.1603 O   0  0  0  0  0  0  0  0  0  0  0  0
   10.0824  -16.6163   24.5048 C   0  0  0  0  0  0  0  0  0  0  0  0
   10.5987  -15.8064   23.3482 C   0  0  2  0  0  0  0  0  0  0  0  0
    9.6938  -15.7688   22.2307 N   0  0  0  0  0  0  0  0  0  0  0  0
   11.9640  -16.1831   22.9457 C   0  0  0  0  0  0  0  0  0  0  0  0
   12.1348  -17.0001   22.0229 O   0  0  0  0  0  0  0  0  0  0  0  0
   13.0968  -15.6317   23.5907 N   0  0  0  0  0  0  0  0  0  0  0  0
   14.4448  -16.0088   23.2081 C   0  0  0  0  0  0  0  0  0  0  0  0
   15.3097  -16.1087   24.3931 C   0  0  0  0  0  0  0  0  0  0  0  0
   16.5781  -15.5247   24.3342 O   0  0  0  0  0  0  0  0  0  0  0  0
   14.9336  -16.7021   25.4442 O   0  0  0  0  0  0  0  0  0  0  0  0
  2  1  1  6
  2  3  1  0
  4  2  1  0
  4  5  1  1
  6  4  1  0
  6 11  1  0
  7  6  2  0
  9  8  1  0
 10 11  1  0
 10  9  1  1
 12 10  1  0
 13 12  2  0
 14 12  1  0
 15 14  1  0
 15 16  1  0
 16 18  2  0
 16 17  1  0
M  END
$$$$
