VSG.pdb
     RDKit          3D

 18 17  0  0  1  0  0  0  0  0999 V2000
    9.0491  -12.8844   20.8006 C   0  0  0  0  0  0  0  0  0  0  0  0
    7.8470  -13.5061   20.1247 C   0  0  1  0  0  0  0  0  0  0  0  0
    7.2794  -12.5195   19.1321 C   0  0  0  0  0  0  0  0  0  0  0  0
    8.1911  -14.7917   19.4253 C   0  0  2  0  0  0  0  0  0  0  0  0
    7.0045  -15.2933   18.7545 N   0  0  0  0  0  0  0  0  0  0  0  0
    8.6894  -15.8277   20.3729 C   0  0  0  0  0  0  0  0  0  0  0  0
    7.9021  -16.4508   21.1203 O   0  0  0  0  0  0  0  0  0  0  0  0
   11.3421  -18.6422   19.5603 O   0  0  0  0  0  0  0  0  0  0  0  0
   11.7549  -17.8998   20.6392 C   0  0  0  0  0  0  0  0  0  0  0  0
   10.6508  -17.1239   21.3020 C   0  0  2  0  0  0  0  0  0  0  0  0
   10.0624  -16.1280   20.4471 N   0  0  0  0  0  0  0  0  0  0  0  0
   11.0398  -16.5734   22.6111 C   0  0  0  0  0  0  0  0  0  0  0  0
   11.6800  -15.5082   22.6699 O   0  0  0  0  0  0  0  0  0  0  0  0
   10.6985  -17.2348   23.8150 N   0  0  0  0  0  0  0  0  0  0  0  0
   11.0434  -16.6775   25.1097 C   0  0  0  0  0  0  0  0  0  0  0  0
   11.8310  -17.6402   25.8938 C   0  0  0  0  0  0  0  0  0  0  0  0
   12.1784  -17.2960   27.2030 O   0  0  0  0  0  0  0  0  0  0  0  0
   12.1927  -18.7525   25.4140 O   0  0  0  0  0  0  0  0  0  0  0  0
  2  1  1  6
  2  3  1  0
  4  2  1  0
  4  5  1  1
  6  4  1  0
  6 11  1  0
  7  6  2  0
  9  8  1  0
 10 11  1  0
 10  9  1  6
 12 10  1  0
 13 12  2  0
 14 12  1  0
 15 14  1  0
 15 16  1  0
 16 18  2  0
 16 17  1  0
M  END
$$$$
