VSG.pdb
     RDKit          3D

 18 17  0  0  1  0  0  0  0  0999 V2000
    7.9225  -13.4250   17.9953 C   0  0  0  0  0  0  0  0  0  0  0  0
    8.4308  -13.3175   19.4159 C   0  0  1  0  0  0  0  0  0  0  0  0
    7.3069  -12.8357   20.3023 C   0  0  0  0  0  0  0  0  0  0  0  0
    8.9593  -14.6277   19.9301 C   0  0  2  0  0  0  0  0  0  0  0  0
    7.9613  -15.6582   19.7027 N   0  0  0  0  0  0  0  0  0  0  0  0
    9.2774  -14.5702   21.3844 C   0  0  0  0  0  0  0  0  0  0  0  0
   10.1994  -13.8415   21.8150 O   0  0  0  0  0  0  0  0  0  0  0  0
    7.9664  -15.0723   25.9291 O   0  0  0  0  0  0  0  0  0  0  0  0
    7.6600  -15.1299   24.5919 C   0  0  0  0  0  0  0  0  0  0  0  0
    8.8353  -15.4526   23.7118 C   0  0  2  0  0  0  0  0  0  0  0  0
    8.5436  -15.3381   22.3080 N   0  0  0  0  0  0  0  0  0  0  0  0
    9.4678  -16.7398   24.0451 C   0  0  0  0  0  0  0  0  0  0  0  0
    8.8156  -17.7947   23.9459 O   0  0  0  0  0  0  0  0  0  0  0  0
   10.8132  -16.8047   24.4798 N   0  0  0  0  0  0  0  0  0  0  0  0
   11.1973  -17.5842   25.6419 C   0  0  0  0  0  0  0  0  0  0  0  0
   12.2288  -18.5697   25.2855 C   0  0  0  0  0  0  0  0  0  0  0  0
   12.7503  -19.3746   26.3021 O   0  0  0  0  0  0  0  0  0  0  0  0
   12.6443  -18.6995   24.0985 O   0  0  0  0  0  0  0  0  0  0  0  0
  2  1  1  6
  2  3  1  0
  4  2  1  0
  4  5  1  1
  6  4  1  0
  6 11  1  0
  7  6  2  0
  9  8  1  0
 10 11  1  0
 10  9  1  1
 12 10  1  0
 13 12  2  0
 14 12  1  0
 15 14  1  0
 15 16  1  0
 16 18  2  0
 16 17  1  0
M  END
$$$$
