VSG.pdb
     RDKit          3D

 18 17  0  0  1  0  0  0  0  0999 V2000
    2.6451  -22.6093   24.3886 C   0  0  0  0  0  0  0  0  0  0  0  0
    2.8171  -23.4806   23.1641 C   0  0  1  0  0  0  0  0  0  0  0  0
    1.5593  -24.2913   22.9601 C   0  0  0  0  0  0  0  0  0  0  0  0
    3.1087  -22.6733   21.9298 C   0  0  2  0  0  0  0  0  0  0  0  0
    3.1515  -23.5656   20.7846 N   0  0  0  0  0  0  0  0  0  0  0  0
    4.4056  -21.9471   22.0301 C   0  0  0  0  0  0  0  0  0  0  0  0
    5.4950  -22.5602   21.9683 O   0  0  0  0  0  0  0  0  0  0  0  0
    5.2293  -18.3840   20.4265 O   0  0  0  0  0  0  0  0  0  0  0  0
    5.5080  -18.3817   21.7710 C   0  0  0  0  0  0  0  0  0  0  0  0
    5.6182  -19.7554   22.3718 C   0  0  2  0  0  0  0  0  0  0  0  0
    4.4319  -20.5499   22.1973 N   0  0  0  0  0  0  0  0  0  0  0  0
    6.0738  -19.7365   23.7718 C   0  0  0  0  0  0  0  0  0  0  0  0
    5.3141  -19.3207   24.6651 O   0  0  0  0  0  0  0  0  0  0  0  0
    7.3684  -20.1848   24.1275 N   0  0  0  0  0  0  0  0  0  0  0  0
    7.7953  -20.2450   25.5131 C   0  0  0  0  0  0  0  0  0  0  0  0
    9.1709  -20.7555   25.6085 C   0  0  0  0  0  0  0  0  0  0  0  0
    9.8296  -21.0997   24.4249 O   0  0  0  0  0  0  0  0  0  0  0  0
    9.7573  -20.8860   26.7209 O   0  0  0  0  0  0  0  0  0  0  0  0
  2  1  1  1
  2  3  1  0
  4  2  1  0
  4  5  1  6
  6  4  1  0
  6 11  1  0
  7  6  2  0
  9  8  1  0
 10 11  1  0
 10  9  1  1
 12 10  1  0
 13 12  2  0
 14 12  1  0
 15 14  1  0
 15 16  1  0
 16 18  2  0
 16 17  1  0
M  END
$$$$
