DFP.pdb
     RDKit          3D

 27 28  0  0  1  0  0  0  0  0999 V2000
   11.7254  -16.3245   20.3077 N   0  0  0  0  0  0  0  0  0  0  0  0
   10.9050  -16.9626   21.3168 C   0  0  1  0  0  0  0  0  0  0  0  0
   11.4775  -18.2418   21.8068 C   0  0  0  0  0  0  0  0  0  0  0  0
   11.7188  -19.2371   20.7603 C   0  0  0  0  0  0  0  0  0  0  0  0
   12.9220  -19.5153   20.4826 O   0  0  0  0  0  0  0  0  0  0  0  0
   10.5534  -16.0555   22.4059 C   0  0  0  0  0  0  0  0  0  0  0  0
   11.4012  -15.1584   22.7036 O   0  0  0  0  0  0  0  0  0  0  0  0
   10.7453  -19.8967   20.0521 O   0  0  0  0  0  0  0  0  0  0  0  0
    9.3108  -16.1914   23.0774 N   0  0  0  0  0  0  0  0  0  0  0  0
    8.8915  -15.2782   24.1191 C   0  0  1  0  0  0  0  0  0  0  0  0
    7.5614  -14.7035   23.8610 C   0  0  0  0  0  0  0  0  0  0  0  0
    7.1610  -13.8355   25.0479 C   0  0  0  0  0  0  0  0  0  0  0  0
    6.4745  -14.3471   26.1202 C   0  0  0  0  0  0  0  0  0  0  0  0
    6.1133  -13.5298   27.1847 C   0  0  0  0  0  0  0  0  0  0  0  0
    6.4283  -12.1919   27.2014 C   0  0  0  0  0  0  0  0  0  0  0  0
    7.1165  -11.7061   26.1148 C   0  0  0  0  0  0  0  0  0  0  0  0
    7.4830  -12.4983   25.0513 C   0  0  0  0  0  0  0  0  0  0  0  0
    9.1717  -15.8630   25.4269 C   0  0  0  0  0  0  0  0  0  0  0  0
    8.8530  -17.1187   25.5285 O   0  0  0  0  0  0  0  0  0  0  0  0
    9.7210  -15.3135   26.5822 N   0  0  0  0  0  0  0  0  0  0  0  0
    9.8734  -13.8803   26.7933 C   0  0  0  0  0  0  0  0  0  0  0  0
   11.1331  -13.7931   27.6171 C   0  0  0  0  0  0  0  0  0  0  0  0
   10.8090  -14.8732   28.6622 C   0  0  0  0  0  0  0  0  0  0  0  0
   10.2320  -15.9657   27.7499 C   0  0  1  0  0  0  0  0  0  0  0  0
    9.2331  -16.6907   28.5485 C   0  0  0  0  0  0  0  0  0  0  0  0
    9.5793  -17.4488   29.6534 O   0  0  0  0  0  0  0  0  0  0  0  0
    8.0369  -16.6106   28.2050 O   0  0  0  0  0  0  0  0  0  0  0  0
  2  3  1  0
  2  1  1  6
  4  3  1  0
  5  4  2  0
  6  7  2  0
  6  2  1  0
  8  4  1  0
  9  6  1  0
 10 11  1  1
 10  9  1  0
 11 12  1  0
 12 17  2  0
 13 14  2  0
 13 12  1  0
 14 15  1  0
 15 16  2  0
 17 16  1  0
 18 10  1  0
 19 18  2  0
 20 18  1  0
 20 21  1  0
 21 22  1  0
 23 22  1  0
 24 23  1  0
 24 20  1  0
 24 25  1  1
 26 25  1  0
 27 25  2  0
M  END
$$$$
