DFP.pdb
     RDKit          3D

 27 28  0  0  1  0  0  0  0  0999 V2000
   11.6779  -16.5244   20.3317 N   0  0  0  0  0  0  0  0  0  0  0  0
   11.0246  -17.1489   21.4639 C   0  0  1  0  0  0  0  0  0  0  0  0
   11.7872  -18.2983   22.0129 C   0  0  0  0  0  0  0  0  0  0  0  0
   11.9156  -19.4329   21.0962 C   0  0  0  0  0  0  0  0  0  0  0  0
   12.9521  -19.4863   20.3718 O   0  0  0  0  0  0  0  0  0  0  0  0
   10.6506  -16.1844   22.4945 C   0  0  0  0  0  0  0  0  0  0  0  0
   11.5568  -15.3903   22.8951 O   0  0  0  0  0  0  0  0  0  0  0  0
   11.0020  -20.4478   20.9561 O   0  0  0  0  0  0  0  0  0  0  0  0
    9.3253  -16.1557   23.0008 N   0  0  0  0  0  0  0  0  0  0  0  0
    8.9083  -15.2182   24.0215 C   0  0  1  0  0  0  0  0  0  0  0  0
    7.6050  -14.6037   23.7219 C   0  0  0  0  0  0  0  0  0  0  0  0
    7.2370  -13.6520   24.8539 C   0  0  0  0  0  0  0  0  0  0  0  0
    7.6426  -12.3412   24.8585 C   0  0  0  0  0  0  0  0  0  0  0  0
    7.3008  -11.4981   25.9092 C   0  0  0  0  0  0  0  0  0  0  0  0
    6.5507  -11.9432   26.9716 C   0  0  0  0  0  0  0  0  0  0  0  0
    6.1576  -13.2604   26.9410 C   0  0  0  0  0  0  0  0  0  0  0  0
    6.4856  -14.1110   25.9105 C   0  0  0  0  0  0  0  0  0  0  0  0
    9.1342  -15.7976   25.3423 C   0  0  0  0  0  0  0  0  0  0  0  0
    8.8416  -17.0609   25.4271 O   0  0  0  0  0  0  0  0  0  0  0  0
    9.6088  -15.2363   26.5246 N   0  0  0  0  0  0  0  0  0  0  0  0
    9.5769  -13.8066   26.8018 C   0  0  0  0  0  0  0  0  0  0  0  0
   10.8151  -13.5974   27.6361 C   0  0  0  0  0  0  0  0  0  0  0  0
   10.6317  -14.7569   28.6289 C   0  0  0  0  0  0  0  0  0  0  0  0
   10.1989  -15.8710   27.6643 C   0  0  1  0  0  0  0  0  0  0  0  0
    9.3008  -16.7535   28.4231 C   0  0  0  0  0  0  0  0  0  0  0  0
    9.7356  -17.4930   29.5091 O   0  0  0  0  0  0  0  0  0  0  0  0
    8.1093  -16.8280   28.0627 O   0  0  0  0  0  0  0  0  0  0  0  0
  2  3  1  0
  2  1  1  6
  4  3  1  0
  5  4  2  0
  6  7  2  0
  6  2  1  0
  8  4  1  0
  9  6  1  0
 10 11  1  6
 10  9  1  0
 11 12  1  0
 12 17  2  0
 13 14  2  0
 13 12  1  0
 14 15  1  0
 15 16  2  0
 17 16  1  0
 18 10  1  0
 19 18  2  0
 20 18  1  0
 20 21  1  0
 21 22  1  0
 23 22  1  0
 24 23  1  0
 24 20  1  0
 24 25  1  1
 26 25  1  0
 27 25  2  0
M  END
$$$$
