DFP.pdb
     RDKit          3D

 27 28  0  0  1  0  0  0  0  0999 V2000
   10.2421  -17.8942   21.1377 N   0  0  0  0  0  0  0  0  0  0  0  0
   11.2878  -17.0002   21.5914 C   0  0  1  0  0  0  0  0  0  0  0  0
   11.9793  -16.3031   20.4778 C   0  0  0  0  0  0  0  0  0  0  0  0
   12.5806  -17.1960   19.4852 C   0  0  0  0  0  0  0  0  0  0  0  0
   11.8722  -17.5275   18.4901 O   0  0  0  0  0  0  0  0  0  0  0  0
   10.8246  -16.0781   22.6246 C   0  0  0  0  0  0  0  0  0  0  0  0
   11.6614  -15.2225   23.0490 O   0  0  0  0  0  0  0  0  0  0  0  0
   13.8538  -17.7058   19.5438 O   0  0  0  0  0  0  0  0  0  0  0  0
    9.4926  -16.1549   23.1075 N   0  0  0  0  0  0  0  0  0  0  0  0
    9.0000  -15.2884   24.1569 C   0  0  1  0  0  0  0  0  0  0  0  0
    7.5966  -14.8963   23.9496 C   0  0  0  0  0  0  0  0  0  0  0  0
    7.2107  -13.8692   25.0073 C   0  0  0  0  0  0  0  0  0  0  0  0
    7.5872  -12.5533   24.9101 C   0  0  0  0  0  0  0  0  0  0  0  0
    7.2296  -11.6401   25.8949 C   0  0  0  0  0  0  0  0  0  0  0  0
    6.4923  -12.0191   26.9914 C   0  0  0  0  0  0  0  0  0  0  0  0
    6.1284  -13.3430   27.0631 C   0  0  0  0  0  0  0  0  0  0  0  0
    6.4724  -14.2625   26.0992 C   0  0  0  0  0  0  0  0  0  0  0  0
    9.4073  -15.8114   25.4574 C   0  0  0  0  0  0  0  0  0  0  0  0
    9.4709  -17.1082   25.5141 O   0  0  0  0  0  0  0  0  0  0  0  0
    9.7409  -15.1666   26.6454 N   0  0  0  0  0  0  0  0  0  0  0  0
    9.5577  -13.7374   26.8596 C   0  0  0  0  0  0  0  0  0  0  0  0
   10.7073  -13.3829   27.7684 C   0  0  0  0  0  0  0  0  0  0  0  0
   10.5591  -14.5190   28.7937 C   0  0  0  0  0  0  0  0  0  0  0  0
   10.3019  -15.7022   27.8488 C   0  0  1  0  0  0  0  0  0  0  0  0
    9.4356  -16.6383   28.5797 C   0  0  0  0  0  0  0  0  0  0  0  0
    8.1167  -16.8570   28.2223 O   0  0  0  0  0  0  0  0  0  0  0  0
    9.9206  -17.2480   29.5536 O   0  0  0  0  0  0  0  0  0  0  0  0
  2  3  1  0
  2  1  1  6
  4  3  1  0
  5  4  2  0
  6  7  2  0
  6  2  1  0
  8  4  1  0
  9  6  1  0
 10 11  1  1
 10  9  1  0
 11 12  1  0
 12 17  2  0
 13 14  2  0
 13 12  1  0
 14 15  1  0
 15 16  2  0
 17 16  1  0
 18 10  1  0
 19 18  2  0
 20 18  1  0
 20 21  1  0
 21 22  1  0
 23 22  1  0
 24 23  1  0
 24 20  1  0
 24 25  1  1
 26 25  1  0
 27 25  2  0
M  END
$$$$
