DFP.pdb
     RDKit          3D

 27 28  0  0  1  0  0  0  0  0999 V2000
   10.0906  -18.0221   21.1078 N   0  0  0  0  0  0  0  0  0  0  0  0
   11.1571  -17.1095   21.4662 C   0  0  1  0  0  0  0  0  0  0  0  0
   11.8204  -16.4996   20.2862 C   0  0  0  0  0  0  0  0  0  0  0  0
   12.6755  -17.4174   19.5310 C   0  0  0  0  0  0  0  0  0  0  0  0
   12.6477  -18.6416   19.8513 O   0  0  0  0  0  0  0  0  0  0  0  0
   10.7331  -16.1122   22.4450 C   0  0  0  0  0  0  0  0  0  0  0  0
   11.5435  -15.1659   22.6900 O   0  0  0  0  0  0  0  0  0  0  0  0
   13.5085  -17.0598   18.5001 O   0  0  0  0  0  0  0  0  0  0  0  0
    9.4648  -16.2191   23.0722 N   0  0  0  0  0  0  0  0  0  0  0  0
    9.0288  -15.2941   24.0964 C   0  0  1  0  0  0  0  0  0  0  0  0
    7.6606  -14.8035   23.8655 C   0  0  0  0  0  0  0  0  0  0  0  0
    7.2704  -13.8752   25.0094 C   0  0  0  0  0  0  0  0  0  0  0  0
    6.5888  -14.3295   26.1102 C   0  0  0  0  0  0  0  0  0  0  0  0
    6.2368  -13.4582   27.1342 C   0  0  0  0  0  0  0  0  0  0  0  0
    6.5563  -12.1223   27.0814 C   0  0  0  0  0  0  0  0  0  0  0  0
    7.2394  -11.6945   25.9675 C   0  0  0  0  0  0  0  0  0  0  0  0
    7.5969  -12.5407   24.9432 C   0  0  0  0  0  0  0  0  0  0  0  0
    9.3844  -15.8156   25.4127 C   0  0  0  0  0  0  0  0  0  0  0  0
    9.2794  -17.1064   25.5206 O   0  0  0  0  0  0  0  0  0  0  0  0
    9.8171  -15.1747   26.5705 N   0  0  0  0  0  0  0  0  0  0  0  0
    9.7752  -13.7297   26.7493 C   0  0  0  0  0  0  0  0  0  0  0  0
   10.9833  -13.4616   27.6106 C   0  0  0  0  0  0  0  0  0  0  0  0
   10.7653  -14.5521   28.6722 C   0  0  0  0  0  0  0  0  0  0  0  0
   10.3669  -15.7297   27.7703 C   0  0  1  0  0  0  0  0  0  0  0  0
    9.4428  -16.5613   28.5550 C   0  0  0  0  0  0  0  0  0  0  0  0
    8.1026  -16.6830   28.2318 O   0  0  0  0  0  0  0  0  0  0  0  0
    9.8973  -17.1709   29.5434 O   0  0  0  0  0  0  0  0  0  0  0  0
  2  3  1  0
  2  1  1  6
  4  3  1  0
  5  4  2  0
  6  7  2  0
  6  2  1  0
  8  4  1  0
  9  6  1  0
 10 11  1  1
 10  9  1  0
 11 12  1  0
 12 17  2  0
 13 14  2  0
 13 12  1  0
 14 15  1  0
 15 16  2  0
 17 16  1  0
 18 10  1  0
 19 18  2  0
 20 18  1  0
 20 21  1  0
 21 22  1  0
 23 22  1  0
 24 23  1  0
 24 20  1  0
 24 25  1  1
 26 25  1  0
 27 25  2  0
M  END
$$$$
