DFP.pdb
     RDKit          3D

 27 28  0  0  1  0  0  0  0  0999 V2000
    5.4200  -19.5250   21.2259 N   0  0  0  0  0  0  0  0  0  0  0  0
    5.9976  -19.5501   22.5542 C   0  0  1  0  0  0  0  0  0  0  0  0
    6.9487  -20.6727   22.7526 C   0  0  0  0  0  0  0  0  0  0  0  0
    6.3737  -22.0002   22.5265 C   0  0  0  0  0  0  0  0  0  0  0  0
    5.3674  -22.3288   23.2204 O   0  0  0  0  0  0  0  0  0  0  0  0
    6.5671  -18.2619   22.9397 C   0  0  0  0  0  0  0  0  0  0  0  0
    7.0911  -17.5653   22.0164 O   0  0  0  0  0  0  0  0  0  0  0  0
    6.8367  -22.9223   21.6211 O   0  0  0  0  0  0  0  0  0  0  0  0
    6.5162  -17.8325   24.2911 N   0  0  0  0  0  0  0  0  0  0  0  0
    7.0283  -16.5462   24.7131 C   0  0  1  0  0  0  0  0  0  0  0  0
    6.1947  -15.9230   25.7535 C   0  0  0  0  0  0  0  0  0  0  0  0
    6.7962  -14.5725   26.1234 C   0  0  0  0  0  0  0  0  0  0  0  0
    6.3250  -13.3994   25.5902 C   0  0  0  0  0  0  0  0  0  0  0  0
    6.8994  -12.1826   25.9378 C   0  0  0  0  0  0  0  0  0  0  0  0
    7.9506  -12.1114   26.8207 C   0  0  0  0  0  0  0  0  0  0  0  0
    8.4024  -13.3017   27.3400 C   0  0  0  0  0  0  0  0  0  0  0  0
    7.8476  -14.5163   27.0085 C   0  0  0  0  0  0  0  0  0  0  0  0
    8.4712  -16.6350   24.9167 C   0  0  0  0  0  0  0  0  0  0  0  0
    8.8263  -17.4476   25.8666 O   0  0  0  0  0  0  0  0  0  0  0  0
    9.5321  -16.0045   24.2722 N   0  0  0  0  0  0  0  0  0  0  0  0
    9.3559  -14.9429   23.2905 C   0  0  0  0  0  0  0  0  0  0  0  0
   10.5072  -15.1658   22.3429 C   0  0  0  0  0  0  0  0  0  0  0  0
   11.6370  -15.3217   23.3740 C   0  0  0  0  0  0  0  0  0  0  0  0
   10.9406  -16.2263   24.4014 C   0  0  1  0  0  0  0  0  0  0  0  0
   11.5098  -15.8826   25.7125 C   0  0  0  0  0  0  0  0  0  0  0  0
   12.8296  -16.1443   26.0366 O   0  0  0  0  0  0  0  0  0  0  0  0
   10.7646  -15.3378   26.5511 O   0  0  0  0  0  0  0  0  0  0  0  0
  2  3  1  0
  2  1  1  6
  4  3  1  0
  5  4  2  0
  6  7  2  0
  6  2  1  0
  8  4  1  0
  9  6  1  0
 10 11  1  1
 10  9  1  0
 11 12  1  0
 12 17  2  0
 13 14  2  0
 13 12  1  0
 14 15  1  0
 15 16  2  0
 17 16  1  0
 18 10  1  0
 19 18  2  0
 20 18  1  0
 20 21  1  0
 21 22  1  0
 23 22  1  0
 24 23  1  0
 24 20  1  0
 24 25  1  1
 26 25  1  0
 27 25  2  0
M  END
$$$$
