DFP.pdb
     RDKit          3D

 27 28  0  0  1  0  0  0  0  0999 V2000
    5.0058  -20.3662   22.8104 N   0  0  0  0  0  0  0  0  0  0  0  0
    6.0442  -19.9785   23.7431 C   0  0  1  0  0  0  0  0  0  0  0  0
    7.3102  -20.7290   23.5475 C   0  0  0  0  0  0  0  0  0  0  0  0
    7.1948  -22.1743   23.7523 C   0  0  0  0  0  0  0  0  0  0  0  0
    6.2816  -22.5852   24.5264 O   0  0  0  0  0  0  0  0  0  0  0  0
    6.2522  -18.5335   23.7779 C   0  0  0  0  0  0  0  0  0  0  0  0
    6.2229  -17.9213   22.6659 O   0  0  0  0  0  0  0  0  0  0  0  0
    7.9977  -23.1249   23.1726 O   0  0  0  0  0  0  0  0  0  0  0  0
    6.4682  -17.8711   25.0140 N   0  0  0  0  0  0  0  0  0  0  0  0
    6.8321  -16.4722   25.0878 C   0  0  1  0  0  0  0  0  0  0  0  0
    6.5204  -15.8785   26.3979 C   0  0  0  0  0  0  0  0  0  0  0  0
    6.9076  -14.4047   26.3756 C   0  0  0  0  0  0  0  0  0  0  0  0
    8.1983  -13.9917   26.5907 C   0  0  0  0  0  0  0  0  0  0  0  0
    8.5210  -12.6400   26.5747 C   0  0  0  0  0  0  0  0  0  0  0  0
    7.5674  -11.6772   26.3445 C   0  0  0  0  0  0  0  0  0  0  0  0
    6.2829  -12.1189   26.1318 C   0  0  0  0  0  0  0  0  0  0  0  0
    5.9429  -13.4520   26.1438 C   0  0  0  0  0  0  0  0  0  0  0  0
    8.1627  -16.2802   24.5187 C   0  0  0  0  0  0  0  0  0  0  0  0
    9.0642  -17.0912   24.9861 O   0  0  0  0  0  0  0  0  0  0  0  0
    8.6347  -15.3838   23.5637 N   0  0  0  0  0  0  0  0  0  0  0  0
    7.8605  -14.2494   23.0783 C   0  0  0  0  0  0  0  0  0  0  0  0
    8.3070  -14.1259   21.6436 C   0  0  0  0  0  0  0  0  0  0  0  0
    9.8270  -14.2100   21.8595 C   0  0  0  0  0  0  0  0  0  0  0  0
    9.8910  -15.3582   22.8775 C   0  0  1  0  0  0  0  0  0  0  0  0
   11.0620  -15.0971   23.7269 C   0  0  0  0  0  0  0  0  0  0  0  0
   12.3538  -15.1163   23.2306 O   0  0  0  0  0  0  0  0  0  0  0  0
   10.8682  -14.8524   24.9343 O   0  0  0  0  0  0  0  0  0  0  0  0
  2  3  1  0
  2  1  1  6
  4  3  1  0
  5  4  2  0
  6  7  2  0
  6  2  1  0
  8  4  1  0
  9  6  1  0
 10 11  1  1
 10  9  1  0
 11 12  1  0
 12 17  2  0
 13 14  2  0
 13 12  1  0
 14 15  1  0
 15 16  2  0
 17 16  1  0
 18 10  1  0
 19 18  2  0
 20 18  1  0
 20 21  1  0
 21 22  1  0
 23 22  1  0
 24 23  1  0
 24 20  1  0
 24 25  1  1
 26 25  1  0
 27 25  2  0
M  END
$$$$
