DFP.pdb
     RDKit          3D

 27 28  0  0  1  0  0  0  0  0999 V2000
    4.2427  -19.9376   22.4623 N   0  0  0  0  0  0  0  0  0  0  0  0
    5.4957  -19.6990   23.1491 C   0  0  1  0  0  0  0  0  0  0  0  0
    6.6475  -20.3847   22.5108 C   0  0  0  0  0  0  0  0  0  0  0  0
    6.5729  -21.8467   22.5388 C   0  0  0  0  0  0  0  0  0  0  0  0
    6.1488  -22.3915   23.5996 O   0  0  0  0  0  0  0  0  0  0  0  0
    5.7472  -18.2783   23.3742 C   0  0  0  0  0  0  0  0  0  0  0  0
    5.3705  -17.4764   22.4647 O   0  0  0  0  0  0  0  0  0  0  0  0
    6.9258  -22.6797   21.5063 O   0  0  0  0  0  0  0  0  0  0  0  0
    6.3798  -17.8437   24.5677 N   0  0  0  0  0  0  0  0  0  0  0  0
    6.7775  -16.4676   24.7746 C   0  0  1  0  0  0  0  0  0  0  0  0
    6.8041  -16.0981   26.1989 C   0  0  0  0  0  0  0  0  0  0  0  0
    7.0550  -14.5993   26.3145 C   0  0  0  0  0  0  0  0  0  0  0  0
    8.3235  -14.0805   26.3805 C   0  0  0  0  0  0  0  0  0  0  0  0
    8.5226  -12.7098   26.4958 C   0  0  0  0  0  0  0  0  0  0  0  0
    7.4653  -11.8329   26.5471 C   0  0  0  0  0  0  0  0  0  0  0  0
    6.2057  -12.3798   26.4786 C   0  0  0  0  0  0  0  0  0  0  0  0
    5.9875  -13.7334   26.3645 C   0  0  0  0  0  0  0  0  0  0  0  0
    7.9338  -16.1596   23.9384 C   0  0  0  0  0  0  0  0  0  0  0  0
    8.9050  -17.0175   24.0352 O   0  0  0  0  0  0  0  0  0  0  0  0
    8.1782  -15.1111   23.0557 N   0  0  0  0  0  0  0  0  0  0  0  0
    7.2913  -13.9649   22.9084 C   0  0  0  0  0  0  0  0  0  0  0  0
    7.4344  -13.6133   21.4493 C   0  0  0  0  0  0  0  0  0  0  0  0
    8.9683  -13.6408   21.3475 C   0  0  0  0  0  0  0  0  0  0  0  0
    9.2682  -14.9168   22.1480 C   0  0  1  0  0  0  0  0  0  0  0  0
   10.5796  -14.7131   22.7805 C   0  0  0  0  0  0  0  0  0  0  0  0
   11.7506  -14.6410   22.0466 O   0  0  0  0  0  0  0  0  0  0  0  0
   10.6215  -14.6044   24.0222 O   0  0  0  0  0  0  0  0  0  0  0  0
  2  3  1  0
  2  1  1  6
  4  3  1  0
  5  4  2  0
  6  7  2  0
  6  2  1  0
  8  4  1  0
  9  6  1  0
 10 11  1  1
 10  9  1  0
 11 12  1  0
 12 17  2  0
 13 14  2  0
 13 12  1  0
 14 15  1  0
 15 16  2  0
 17 16  1  0
 18 10  1  0
 19 18  2  0
 20 18  1  0
 20 21  1  0
 21 22  1  0
 23 22  1  0
 24 23  1  0
 24 20  1  0
 24 25  1  1
 26 25  1  0
 27 25  2  0
M  END
$$$$
