DFP.pdb
     RDKit          3D

 27 28  0  0  1  0  0  0  0  0999 V2000
   11.3684  -16.3281   20.0489 N   0  0  0  0  0  0  0  0  0  0  0  0
   11.1239  -16.9766   21.3211 C   0  0  1  0  0  0  0  0  0  0  0  0
   12.2463  -17.8463   21.7547 C   0  0  0  0  0  0  0  0  0  0  0  0
   12.6658  -18.8345   20.7590 C   0  0  0  0  0  0  0  0  0  0  0  0
   11.7747  -19.3164   20.0002 O   0  0  0  0  0  0  0  0  0  0  0  0
   10.7158  -16.0338   22.3589 C   0  0  0  0  0  0  0  0  0  0  0  0
   11.4355  -14.9987   22.5109 O   0  0  0  0  0  0  0  0  0  0  0  0
   13.9503  -19.2840   20.5786 O   0  0  0  0  0  0  0  0  0  0  0  0
    9.5593  -16.2869   23.1412 N   0  0  0  0  0  0  0  0  0  0  0  0
    9.0861  -15.3569   24.1441 C   0  0  1  0  0  0  0  0  0  0  0  0
    7.7546  -14.8165   23.8260 C   0  0  0  0  0  0  0  0  0  0  0  0
    7.3492  -13.8317   24.9161 C   0  0  0  0  0  0  0  0  0  0  0  0
    6.6528  -14.2300   26.0292 C   0  0  0  0  0  0  0  0  0  0  0  0
    6.2873  -13.3082   27.0030 C   0  0  0  0  0  0  0  0  0  0  0  0
    6.6079  -11.9765   26.8870 C   0  0  0  0  0  0  0  0  0  0  0  0
    7.3060  -11.6053   25.7622 C   0  0  0  0  0  0  0  0  0  0  0  0
    7.6769  -12.5021   24.7869 C   0  0  0  0  0  0  0  0  0  0  0  0
    9.3322  -15.9030   25.4753 C   0  0  0  0  0  0  0  0  0  0  0  0
    9.1113  -17.1796   25.5769 O   0  0  0  0  0  0  0  0  0  0  0  0
    9.7630  -15.2982   26.6530 N   0  0  0  0  0  0  0  0  0  0  0  0
    9.6950  -13.8620   26.8872 C   0  0  0  0  0  0  0  0  0  0  0  0
   10.9055  -13.6032   27.7479 C   0  0  0  0  0  0  0  0  0  0  0  0
   10.7182  -14.7373   28.7689 C   0  0  0  0  0  0  0  0  0  0  0  0
   10.3343  -15.8874   27.8262 C   0  0  1  0  0  0  0  0  0  0  0  0
    9.4336  -16.7661   28.5862 C   0  0  0  0  0  0  0  0  0  0  0  0
    8.1089  -16.9515   28.2311 O   0  0  0  0  0  0  0  0  0  0  0  0
    9.8939  -17.3569   29.5834 O   0  0  0  0  0  0  0  0  0  0  0  0
  2  3  1  0
  2  1  1  6
  4  3  1  0
  5  4  2  0
  6  7  2  0
  6  2  1  0
  8  4  1  0
  9  6  1  0
 10 11  1  6
 10  9  1  0
 11 12  1  0
 12 17  2  0
 13 14  2  0
 13 12  1  0
 14 15  1  0
 15 16  2  0
 17 16  1  0
 18 10  1  0
 19 18  2  0
 20 18  1  0
 20 21  1  0
 21 22  1  0
 23 22  1  0
 24 23  1  0
 24 20  1  0
 24 25  1  1
 26 25  1  0
 27 25  2  0
M  END
$$$$
