YQE.pdb
     RDKit          3D

 31 31  0  0  1  0  0  0  0  0999 V2000
   28.5997  -19.6650   -6.2789 O   0  0  0  0  0  0  0  0  0  0  0  0
   28.0802  -19.8557   -7.5642 C   0  0  0  0  0  0  0  0  0  0  0  0
   26.7812  -19.4546   -7.8307 C   0  0  0  0  0  0  0  0  0  0  0  0
   26.2837  -19.6558   -9.1238 C   0  0  0  0  0  0  0  0  0  0  0  0
   27.0432  -20.2285  -10.1028 C   0  0  0  0  0  0  0  0  0  0  0  0
   26.4927  -20.4258  -11.4505 C   0  0  0  0  0  0  0  0  0  0  0  0
   25.4455  -21.5450  -11.3364 C   0  0  2  0  0  0  0  0  0  0  0  0
   26.1313  -22.8118  -11.3711 N   0  0  0  0  0  0  0  0  0  0  0  0
   24.5805  -21.4113  -12.5173 C   0  0  0  0  0  0  0  0  0  0  0  0
   24.9480  -21.8921  -13.6012 O   0  0  0  0  0  0  0  0  0  0  0  0
   28.3270  -20.6171   -9.8131 C   0  0  0  0  0  0  0  0  0  0  0  0
   28.8733  -20.4389   -8.5366 C   0  0  0  0  0  0  0  0  0  0  0  0
   18.5442  -22.1879  -12.1068 N   0  0  0  0  0  0  0  0  0  0  0  0
   19.6451  -23.0556  -12.0792 C   0  0  0  0  0  0  0  0  0  0  0  0
   19.4996  -24.2273  -11.6713 O   0  0  0  0  0  0  0  0  0  0  0  0
   21.0356  -22.6447  -12.5265 C   0  0  0  0  0  0  0  0  0  0  0  0
   21.0264  -21.1938  -12.8901 C   0  0  0  0  0  0  0  0  0  0  0  0
   22.3233  -20.7428  -13.4576 C   0  0  2  0  0  0  0  0  0  0  0  0
   23.3525  -20.7449  -12.4124 N   0  0  0  0  0  0  0  0  0  0  0  0
   22.2372  -19.3727  -13.9873 C   0  0  0  0  0  0  0  0  0  0  0  0
   22.2994  -18.4122  -13.1440 O   0  0  0  0  0  0  0  0  0  0  0  0
   22.0985  -19.0863  -15.3648 N   0  0  0  0  0  0  0  0  0  0  0  0
   21.9199  -17.6598  -15.7566 C   0  0  1  0  0  0  0  0  0  0  0  0
   22.6325  -17.5484  -17.0572 C   0  0  0  0  0  0  0  0  0  0  0  0
   22.5264  -16.2413  -17.7488 C   0  0  0  0  0  0  0  0  0  0  0  0
   23.1969  -16.2000  -19.0635 C   0  0  0  0  0  0  0  0  0  0  0  0
   23.7824  -17.2312  -19.5084 O   0  0  0  0  0  0  0  0  0  0  0  0
   20.5142  -17.2938  -15.7050 C   0  0  0  0  0  0  0  0  0  0  0  0
   19.6315  -18.2176  -15.6703 O   0  0  0  0  0  0  0  0  0  0  0  0
   23.1993  -15.0315  -19.8504 O   0  0  0  0  0  0  0  0  0  0  0  0
   20.0128  -16.0097  -15.6806 O   0  0  0  0  0  0  0  0  0  0  0  0
  2  3  2  0
  2  1  1  0
  4  3  1  0
  5  4  2  0
  6  5  1  0
  7  6  1  0
  7  8  1  6
  9  7  1  0
  9 10  2  0
 11  5  1  0
 11 12  2  0
 12  2  1  0
 13 14  1  0
 14 15  2  0
 14 16  1  0
 16 17  1  0
 18 17  1  1
 18 19  1  0
 19  9  1  0
 20 18  1  0
 21 20  2  0
 22 20  1  0
 23 22  1  0
 23 28  1  0
 23 24  1  6
 25 24  1  0
 26 25  1  0
 27 26  2  0
 28 31  1  0
 29 28  2  0
 30 26  1  0
M  END
$$$$
