YQE.pdb
     RDKit          3D

 31 31  0  0  1  0  0  0  0  0999 V2000
   28.6710  -14.7914  -19.8055 O   0  0  0  0  0  0  0  0  0  0  0  0
   27.9992  -15.7282  -19.0124 C   0  0  0  0  0  0  0  0  0  0  0  0
   28.3992  -15.9068  -17.6980 C   0  0  0  0  0  0  0  0  0  0  0  0
   27.7119  -16.8496  -16.9244 C   0  0  0  0  0  0  0  0  0  0  0  0
   26.6771  -17.5786  -17.4353 C   0  0  0  0  0  0  0  0  0  0  0  0
   25.9749  -18.5604  -16.5978 C   0  0  0  0  0  0  0  0  0  0  0  0
   26.9897  -19.6699  -16.2794 C   0  0  2  0  0  0  0  0  0  0  0  0
   27.2956  -20.3681  -17.5022 N   0  0  0  0  0  0  0  0  0  0  0  0
   26.3153  -20.5772  -15.3399 C   0  0  0  0  0  0  0  0  0  0  0  0
   25.8934  -21.6722  -15.7448 O   0  0  0  0  0  0  0  0  0  0  0  0
   26.3002  -17.3829  -18.7403 C   0  0  0  0  0  0  0  0  0  0  0  0
   26.9538  -16.4528  -19.5572 C   0  0  0  0  0  0  0  0  0  0  0  0
   25.4724  -19.4777   -9.3130 N   0  0  0  0  0  0  0  0  0  0  0  0
   25.4575  -20.8793   -9.3408 C   0  0  0  0  0  0  0  0  0  0  0  0
   25.0905  -21.5146   -8.3298 O   0  0  0  0  0  0  0  0  0  0  0  0
   25.8709  -21.6886  -10.5560 C   0  0  0  0  0  0  0  0  0  0  0  0
   26.2818  -20.7562  -11.6510 C   0  0  0  0  0  0  0  0  0  0  0  0
   25.6430  -21.0901  -12.9502 C   0  0  2  0  0  0  0  0  0  0  0  0
   26.1537  -20.2018  -13.9998 N   0  0  0  0  0  0  0  0  0  0  0  0
   24.1829  -20.9157  -12.8982 C   0  0  0  0  0  0  0  0  0  0  0  0
   23.5186  -21.7393  -12.1783 O   0  0  0  0  0  0  0  0  0  0  0  0
   23.5040  -19.8893  -13.5940 N   0  0  0  0  0  0  0  0  0  0  0  0
   22.0189  -19.8466  -13.4804 C   0  0  1  0  0  0  0  0  0  0  0  0
   21.5400  -20.2095  -14.8408 C   0  0  0  0  0  0  0  0  0  0  0  0
   21.2397  -19.0773  -15.7497 C   0  0  0  0  0  0  0  0  0  0  0  0
   20.7230  -19.4868  -17.0707 C   0  0  0  0  0  0  0  0  0  0  0  0
   19.4883  -19.7255  -17.2214 O   0  0  0  0  0  0  0  0  0  0  0  0
   21.5750  -20.6509  -12.3540 C   0  0  0  0  0  0  0  0  0  0  0  0
   20.3383  -20.6411  -12.0312 O   0  0  0  0  0  0  0  0  0  0  0  0
   21.5752  -19.6161  -18.1849 O   0  0  0  0  0  0  0  0  0  0  0  0
   22.3732  -21.4592  -11.5726 O   0  0  0  0  0  0  0  0  0  0  0  0
  2  3  2  0
  2  1  1  0
  4  3  1  0
  5  4  2  0
  6  5  1  0
  7  6  1  0
  7  8  1  6
  9  7  1  0
  9 10  2  0
 11  5  1  0
 11 12  2  0
 12  2  1  0
 13 14  1  0
 14 15  2  0
 14 16  1  0
 16 17  1  0
 18 17  1  1
 18 19  1  0
 19  9  1  0
 20 18  1  0
 21 20  2  0
 22 20  1  0
 23 22  1  0
 23 28  1  0
 23 24  1  6
 25 24  1  0
 26 25  1  0
 27 26  2  0
 28 31  1  0
 29 28  2  0
 30 26  1  0
M  END
$$$$
