YQE.pdb
     RDKit          3D

 31 31  0  0  1  0  0  0  0  0999 V2000
   26.6373  -32.1321   -9.8651 O   0  0  0  0  0  0  0  0  0  0  0  0
   26.1581  -32.1838   -8.5514 C   0  0  0  0  0  0  0  0  0  0  0  0
   25.0380  -31.4413   -8.2145 C   0  0  0  0  0  0  0  0  0  0  0  0
   24.5774  -31.5092   -6.8943 C   0  0  0  0  0  0  0  0  0  0  0  0
   25.2022  -32.2790   -5.9560 C   0  0  0  0  0  0  0  0  0  0  0  0
   24.6943  -32.3299   -4.5784 C   0  0  0  0  0  0  0  0  0  0  0  0
   23.9659  -33.6751   -4.4295 C   0  0  2  0  0  0  0  0  0  0  0  0
   22.7920  -33.6490   -5.2647 N   0  0  0  0  0  0  0  0  0  0  0  0
   23.5731  -33.7679   -3.0161 C   0  0  0  0  0  0  0  0  0  0  0  0
   22.8124  -32.9124   -2.5362 O   0  0  0  0  0  0  0  0  0  0  0  0
   26.3099  -33.0051   -6.3152 C   0  0  0  0  0  0  0  0  0  0  0  0
   26.8118  -32.9729   -7.6216 C   0  0  0  0  0  0  0  0  0  0  0  0
   20.4139  -36.8943    0.5480 N   0  0  0  0  0  0  0  0  0  0  0  0
   20.3650  -36.5601   -0.8127 C   0  0  0  0  0  0  0  0  0  0  0  0
   19.2740  -36.5959   -1.4200 O   0  0  0  0  0  0  0  0  0  0  0  0
   21.5889  -36.1477   -1.6093 C   0  0  0  0  0  0  0  0  0  0  0  0
   22.7999  -36.2484   -0.7372 C   0  0  0  0  0  0  0  0  0  0  0  0
   23.6664  -35.0448   -0.8283 C   0  0  2  0  0  0  0  0  0  0  0  0
   24.0577  -34.8167   -2.2234 N   0  0  0  0  0  0  0  0  0  0  0  0
   24.9020  -35.2047   -0.0454 C   0  0  0  0  0  0  0  0  0  0  0  0
   25.9741  -35.4756   -0.6895 O   0  0  0  0  0  0  0  0  0  0  0  0
   24.9469  -35.0657    1.3607 N   0  0  0  0  0  0  0  0  0  0  0  0
   26.2874  -35.0791    2.0113 C   0  0  1  0  0  0  0  0  0  0  0  0
   27.2336  -35.3160    0.8886 C   0  0  0  0  0  0  0  0  0  0  0  0
   28.0513  -36.5497    0.9746 C   0  0  0  0  0  0  0  0  0  0  0  0
   29.4878  -36.3394    0.7068 C   0  0  0  0  0  0  0  0  0  0  0  0
   30.2094  -35.7394    1.5574 O   0  0  0  0  0  0  0  0  0  0  0  0
   26.4656  -33.8885    2.8258 C   0  0  0  0  0  0  0  0  0  0  0  0
   27.5649  -33.7251    3.4571 O   0  0  0  0  0  0  0  0  0  0  0  0
   30.0882  -36.7982   -0.4821 O   0  0  0  0  0  0  0  0  0  0  0  0
   25.5449  -32.8755    2.9901 O   0  0  0  0  0  0  0  0  0  0  0  0
  2  3  2  0
  2  1  1  0
  4  3  1  0
  5  4  2  0
  6  5  1  0
  7  6  1  0
  7  8  1  6
  9  7  1  0
  9 10  2  0
 11  5  1  0
 11 12  2  0
 12  2  1  0
 13 14  1  0
 14 15  2  0
 14 16  1  0
 16 17  1  0
 18 17  1  6
 18 19  1  0
 19  9  1  0
 20 18  1  0
 21 20  2  0
 22 20  1  0
 23 22  1  0
 23 28  1  0
 23 24  1  6
 25 24  1  0
 26 25  1  0
 27 26  2  0
 28 31  1  0
 29 28  2  0
 30 26  1  0
M  END
$$$$
