YQE.pdb
     RDKit          3D

 31 31  0  0  1  0  0  0  0  0999 V2000
   21.3780    0.4390  -16.5202 O   0  0  0  0  0  0  0  0  0  0  0  0
   21.5451   -0.9349  -16.7267 C   0  0  0  0  0  0  0  0  0  0  0  0
   20.4227   -1.7374  -16.8522 C   0  0  0  0  0  0  0  0  0  0  0  0
   20.6152   -3.1087  -17.0582 C   0  0  0  0  0  0  0  0  0  0  0  0
   21.8645   -3.6534  -17.1353 C   0  0  0  0  0  0  0  0  0  0  0  0
   22.0339   -5.0964  -17.3527 C   0  0  0  0  0  0  0  0  0  0  0  0
   21.1653   -5.8030  -16.3000 C   0  0  2  0  0  0  0  0  0  0  0  0
   21.9591   -5.9945  -15.1127 N   0  0  0  0  0  0  0  0  0  0  0  0
   20.8080   -7.1059  -16.8790 C   0  0  0  0  0  0  0  0  0  0  0  0
   20.2034   -7.1476  -17.9624 O   0  0  0  0  0  0  0  0  0  0  0  0
   22.9600   -2.8368  -17.0077 C   0  0  0  0  0  0  0  0  0  0  0  0
   22.8235   -1.4591  -16.8005 C   0  0  0  0  0  0  0  0  0  0  0  0
   23.8518  -12.4185  -15.5005 N   0  0  0  0  0  0  0  0  0  0  0  0
   22.7513  -12.8873  -16.2317 C   0  0  0  0  0  0  0  0  0  0  0  0
   22.6662  -14.1017  -16.5118 O   0  0  0  0  0  0  0  0  0  0  0  0
   21.6312  -11.9843  -16.7140 C   0  0  0  0  0  0  0  0  0  0  0  0
   21.8985  -10.5843  -16.2600 C   0  0  0  0  0  0  0  0  0  0  0  0
   20.8442   -9.6342  -16.6998 C   0  0  2  0  0  0  0  0  0  0  0  0
   21.1504   -8.2869  -16.2074 N   0  0  0  0  0  0  0  0  0  0  0  0
   19.5227  -10.0063  -16.1703 C   0  0  0  0  0  0  0  0  0  0  0  0
   19.3114   -9.8046  -14.9244 O   0  0  0  0  0  0  0  0  0  0  0  0
   18.4988  -10.5597  -16.9728 N   0  0  0  0  0  0  0  0  0  0  0  0
   17.2523  -11.0046  -16.2882 C   0  0  1  0  0  0  0  0  0  0  0  0
   16.2147  -10.0538  -16.7691 C   0  0  0  0  0  0  0  0  0  0  0  0
   14.8884  -10.6389  -17.0801 C   0  0  0  0  0  0  0  0  0  0  0  0
   13.7498   -9.8700  -16.5398 C   0  0  0  0  0  0  0  0  0  0  0  0
   13.2095   -8.9628  -17.2393 O   0  0  0  0  0  0  0  0  0  0  0  0
   17.0389  -12.4265  -16.5012 C   0  0  0  0  0  0  0  0  0  0  0  0
   17.7953  -13.0538  -17.3185 O   0  0  0  0  0  0  0  0  0  0  0  0
   13.2368  -10.1238  -15.2526 O   0  0  0  0  0  0  0  0  0  0  0  0
   16.0776  -13.2012  -15.8875 O   0  0  0  0  0  0  0  0  0  0  0  0
  2  3  2  0
  2  1  1  0
  4  3  1  0
  5  4  2  0
  6  5  1  0
  7  6  1  0
  7  8  1  1
  9  7  1  0
  9 10  2  0
 11  5  1  0
 11 12  2  0
 12  2  1  0
 13 14  1  0
 14 15  2  0
 14 16  1  0
 16 17  1  0
 18 17  1  1
 18 19  1  0
 19  9  1  0
 20 18  1  0
 21 20  2  0
 22 20  1  0
 23 22  1  0
 23 28  1  0
 23 24  1  6
 25 24  1  0
 26 25  1  0
 27 26  2  0
 28 31  1  0
 29 28  2  0
 30 26  1  0
M  END
$$$$
