YQE.pdb
     RDKit          3D

 31 31  0  0  1  0  0  0  0  0999 V2000
   26.1422  -14.1918  -20.2077 O   0  0  0  0  0  0  0  0  0  0  0  0
   26.1767  -15.4360  -19.5682 C   0  0  0  0  0  0  0  0  0  0  0  0
   26.8814  -16.4744  -20.1550 C   0  0  0  0  0  0  0  0  0  0  0  0
   26.9014  -17.7096  -19.4964 C   0  0  0  0  0  0  0  0  0  0  0  0
   26.2513  -17.9006  -18.3114 C   0  0  0  0  0  0  0  0  0  0  0  0
   26.2914  -19.2088  -17.6442 C   0  0  0  0  0  0  0  0  0  0  0  0
   27.5254  -19.1955  -16.7281 C   0  0  2  0  0  0  0  0  0  0  0  0
   28.6391  -19.7422  -17.4609 N   0  0  0  0  0  0  0  0  0  0  0  0
   27.1956  -20.0691  -15.5928 C   0  0  0  0  0  0  0  0  0  0  0  0
   27.7423  -21.1795  -15.4977 O   0  0  0  0  0  0  0  0  0  0  0  0
   25.5603  -16.8558  -17.7509 C   0  0  0  0  0  0  0  0  0  0  0  0
   25.5083  -15.6003  -18.3678 C   0  0  0  0  0  0  0  0  0  0  0  0
   24.6562  -20.2747  -11.0022 N   0  0  0  0  0  0  0  0  0  0  0  0
   25.8685  -20.6951  -10.4373 C   0  0  0  0  0  0  0  0  0  0  0  0
   25.8682  -21.2696   -9.3280 O   0  0  0  0  0  0  0  0  0  0  0  0
   27.2125  -20.4882  -11.1107 C   0  0  0  0  0  0  0  0  0  0  0  0
   27.0252  -19.6482  -12.3341 C   0  0  0  0  0  0  0  0  0  0  0  0
   26.1012  -20.2732  -13.3155 C   0  0  2  0  0  0  0  0  0  0  0  0
   26.2705  -19.6447  -14.6299 N   0  0  0  0  0  0  0  0  0  0  0  0
   24.6937  -20.0998  -12.9229 C   0  0  0  0  0  0  0  0  0  0  0  0
   24.3452  -18.9510  -12.4795 O   0  0  0  0  0  0  0  0  0  0  0  0
   23.7329  -21.1320  -13.0227 N   0  0  0  0  0  0  0  0  0  0  0  0
   22.3781  -20.7652  -13.5231 C   0  0  1  0  0  0  0  0  0  0  0  0
   22.6476  -19.9598  -14.7440 C   0  0  0  0  0  0  0  0  0  0  0  0
   21.4571  -19.5160  -15.5080 C   0  0  0  0  0  0  0  0  0  0  0  0
   21.4364  -18.0696  -15.8033 C   0  0  0  0  0  0  0  0  0  0  0  0
   22.1279  -17.6085  -16.7589 O   0  0  0  0  0  0  0  0  0  0  0  0
   21.5471  -21.9513  -13.6470 C   0  0  0  0  0  0  0  0  0  0  0  0
   20.2753  -21.8252  -13.6262 O   0  0  0  0  0  0  0  0  0  0  0  0
   20.6543  -17.1763  -15.0451 O   0  0  0  0  0  0  0  0  0  0  0  0
   22.0005  -23.2446  -13.7980 O   0  0  0  0  0  0  0  0  0  0  0  0
  2  3  2  0
  2  1  1  0
  4  3  1  0
  5  4  2  0
  6  5  1  0
  7  6  1  0
  7  8  1  6
  9  7  1  0
  9 10  2  0
 11  5  1  0
 11 12  2  0
 12  2  1  0
 13 14  1  0
 14 15  2  0
 14 16  1  0
 16 17  1  0
 18 17  1  1
 18 19  1  0
 19  9  1  0
 20 18  1  0
 21 20  2  0
 22 20  1  0
 23 22  1  0
 23 28  1  0
 23 24  1  6
 25 24  1  0
 26 25  1  0
 27 26  2  0
 28 31  1  0
 29 28  2  0
 30 26  1  0
M  END
$$$$
