YQE.pdb
     RDKit          3D

 31 31  0  0  1  0  0  0  0  0999 V2000
   28.2325  -19.8733   -4.9142 O   0  0  0  0  0  0  0  0  0  0  0  0
   27.7963  -20.2450   -6.1908 C   0  0  0  0  0  0  0  0  0  0  0  0
   26.4753  -20.6238   -6.3662 C   0  0  0  0  0  0  0  0  0  0  0  0
   26.0624  -20.9914   -7.6524 C   0  0  0  0  0  0  0  0  0  0  0  0
   26.9235  -20.9818   -8.7115 C   0  0  0  0  0  0  0  0  0  0  0  0
   26.4599  -21.3725  -10.0497 C   0  0  0  0  0  0  0  0  0  0  0  0
   25.8396  -20.1166  -10.6823 C   0  0  2  0  0  0  0  0  0  0  0  0
   24.5221  -19.9342  -10.1281 N   0  0  0  0  0  0  0  0  0  0  0  0
   25.7429  -20.3949  -12.1224 C   0  0  0  0  0  0  0  0  0  0  0  0
   24.6548  -20.7474  -12.6047 O   0  0  0  0  0  0  0  0  0  0  0  0
   28.2270  -20.6025   -8.5113 C   0  0  0  0  0  0  0  0  0  0  0  0
   28.6916  -20.2257   -7.2457 C   0  0  0  0  0  0  0  0  0  0  0  0
   27.0946  -18.0528  -17.1286 N   0  0  0  0  0  0  0  0  0  0  0  0
   27.3833  -17.3025  -15.9800 C   0  0  0  0  0  0  0  0  0  0  0  0
   27.2077  -16.0657  -15.9883 O   0  0  0  0  0  0  0  0  0  0  0  0
   27.9090  -17.9196  -14.6973 C   0  0  0  0  0  0  0  0  0  0  0  0
   28.0301  -19.3996  -14.8775 C   0  0  0  0  0  0  0  0  0  0  0  0
   26.8283  -20.1298  -14.3978 C   0  0  2  0  0  0  0  0  0  0  0  0
   26.8746  -20.2611  -12.9376 N   0  0  0  0  0  0  0  0  0  0  0  0
   26.7579  -21.4879  -14.9597 C   0  0  0  0  0  0  0  0  0  0  0  0
   27.4040  -22.4094  -14.3505 O   0  0  0  0  0  0  0  0  0  0  0  0
   26.0127  -21.8049  -16.1185 N   0  0  0  0  0  0  0  0  0  0  0  0
   25.2599  -23.0909  -16.1223 C   0  0  1  0  0  0  0  0  0  0  0  0
   24.4897  -23.0646  -14.8503 C   0  0  0  0  0  0  0  0  0  0  0  0
   23.2086  -22.3188  -14.8793 C   0  0  0  0  0  0  0  0  0  0  0  0
   22.3437  -22.5627  -13.7080 C   0  0  0  0  0  0  0  0  0  0  0  0
   21.3375  -21.8225  -13.4988 O   0  0  0  0  0  0  0  0  0  0  0  0
   24.5296  -23.2450  -17.3695 C   0  0  0  0  0  0  0  0  0  0  0  0
   24.0287  -24.3843  -17.6607 O   0  0  0  0  0  0  0  0  0  0  0  0
   22.6063  -23.6133  -12.8070 O   0  0  0  0  0  0  0  0  0  0  0  0
   24.3043  -22.2554  -18.3028 O   0  0  0  0  0  0  0  0  0  0  0  0
  2  3  2  0
  2  1  1  0
  4  3  1  0
  5  4  2  0
  6  5  1  0
  7  6  1  0
  7  8  1  1
  9  7  1  0
  9 10  2  0
 11  5  1  0
 11 12  2  0
 12  2  1  0
 13 14  1  0
 14 15  2  0
 14 16  1  0
 16 17  1  0
 18 17  1  6
 18 19  1  0
 19  9  1  0
 20 18  1  0
 21 20  2  0
 22 20  1  0
 23 22  1  0
 23 28  1  0
 23 24  1  1
 25 24  1  0
 26 25  1  0
 27 26  2  0
 28 31  1  0
 29 28  2  0
 30 26  1  0
M  END
$$$$
