YQE.pdb
     RDKit          3D

 31 31  0  0  1  0  0  0  0  0999 V2000
   34.4050   -8.5734  -17.5524 O   0  0  0  0  0  0  0  0  0  0  0  0
   33.0254   -8.5940  -17.7850 C   0  0  0  0  0  0  0  0  0  0  0  0
   32.5110   -9.4990  -18.6992 C   0  0  0  0  0  0  0  0  0  0  0  0
   31.1278   -9.5007  -18.9149 C   0  0  0  0  0  0  0  0  0  0  0  0
   30.2980   -8.6429  -18.2523 C   0  0  0  0  0  0  0  0  0  0  0  0
   28.8502   -8.6693  -18.5000 C   0  0  0  0  0  0  0  0  0  0  0  0
   28.2739   -9.7825  -17.6107 C   0  0  2  0  0  0  0  0  0  0  0  0
   28.7677  -11.0477  -18.0921 N   0  0  0  0  0  0  0  0  0  0  0  0
   26.8148   -9.7183  -17.7771 C   0  0  0  0  0  0  0  0  0  0  0  0
   26.2407  -10.5744  -18.4686 O   0  0  0  0  0  0  0  0  0  0  0  0
   30.8325   -7.7561  -17.3517 C   0  0  0  0  0  0  0  0  0  0  0  0
   32.2087   -7.7127  -17.0986 C   0  0  0  0  0  0  0  0  0  0  0  0
   22.8862  -11.9602  -15.1549 N   0  0  0  0  0  0  0  0  0  0  0  0
   22.0443  -10.9391  -15.6176 C   0  0  0  0  0  0  0  0  0  0  0  0
   20.8068  -11.0516  -15.4893 O   0  0  0  0  0  0  0  0  0  0  0  0
   22.5608   -9.6757  -16.2806 C   0  0  0  0  0  0  0  0  0  0  0  0
   24.0488   -9.7604  -16.4077 C   0  0  0  0  0  0  0  0  0  0  0  0
   24.6206   -8.6112  -17.1561 C   0  0  2  0  0  0  0  0  0  0  0  0
   26.0850   -8.6957  -17.1567 N   0  0  0  0  0  0  0  0  0  0  0  0
   24.2544   -7.3259  -16.5404 C   0  0  0  0  0  0  0  0  0  0  0  0
   24.8848   -6.9816  -15.4813 O   0  0  0  0  0  0  0  0  0  0  0  0
   23.2581   -6.4740  -17.0696 N   0  0  0  0  0  0  0  0  0  0  0  0
   23.0219   -5.1768  -16.3754 C   0  0  1  0  0  0  0  0  0  0  0  0
   22.2595   -4.3691  -17.3644 C   0  0  0  0  0  0  0  0  0  0  0  0
   21.8724   -3.0048  -16.9320 C   0  0  0  0  0  0  0  0  0  0  0  0
   21.1483   -2.2306  -17.9596 C   0  0  0  0  0  0  0  0  0  0  0  0
   20.6439   -1.1063  -17.6668 O   0  0  0  0  0  0  0  0  0  0  0  0
   22.4317   -5.4043  -15.0668 C   0  0  0  0  0  0  0  0  0  0  0  0
   21.6784   -6.4220  -14.8922 O   0  0  0  0  0  0  0  0  0  0  0  0
   21.0051   -2.7111  -19.2760 O   0  0  0  0  0  0  0  0  0  0  0  0
   22.6105   -4.6152  -13.9504 O   0  0  0  0  0  0  0  0  0  0  0  0
  2  3  2  0
  2  1  1  0
  4  3  1  0
  5  4  2  0
  6  5  1  0
  7  6  1  0
  7  8  1  6
  9  7  1  0
  9 10  2  0
 11  5  1  0
 11 12  2  0
 12  2  1  0
 13 14  1  0
 14 15  2  0
 14 16  1  0
 16 17  1  0
 18 17  1  1
 18 19  1  0
 19  9  1  0
 20 18  1  0
 21 20  2  0
 22 20  1  0
 23 22  1  0
 23 28  1  0
 23 24  1  6
 25 24  1  0
 26 25  1  0
 27 26  2  0
 28 31  1  0
 29 28  2  0
 30 26  1  0
M  END
$$$$
