YQE.pdb
     RDKit          3D

 31 31  0  0  1  0  0  0  0  0999 V2000
   28.3294  -19.6922   -5.0000 O   0  0  0  0  0  0  0  0  0  0  0  0
   28.0395  -19.8279   -6.3622 C   0  0  0  0  0  0  0  0  0  0  0  0
   28.7680  -20.7322   -7.1179 C   0  0  0  0  0  0  0  0  0  0  0  0
   28.4597  -20.8503   -8.4784 C   0  0  0  0  0  0  0  0  0  0  0  0
   27.4742  -20.1040   -9.0573 C   0  0  0  0  0  0  0  0  0  0  0  0
   27.1739  -20.2510  -10.4878 C   0  0  0  0  0  0  0  0  0  0  0  0
   25.7000  -20.6758  -10.5845 C   0  0  2  0  0  0  0  0  0  0  0  0
   25.5763  -22.0070  -10.0470 N   0  0  0  0  0  0  0  0  0  0  0  0
   25.3742  -20.6822  -12.0179 C   0  0  0  0  0  0  0  0  0  0  0  0
   25.4514  -19.6266  -12.6664 O   0  0  0  0  0  0  0  0  0  0  0  0
   26.7672  -19.2153   -8.2869 C   0  0  0  0  0  0  0  0  0  0  0  0
   27.0350  -19.0582   -6.9218 C   0  0  0  0  0  0  0  0  0  0  0  0
   25.9011  -21.3629  -17.0029 N   0  0  0  0  0  0  0  0  0  0  0  0
   26.9318  -21.6681  -16.1028 C   0  0  0  0  0  0  0  0  0  0  0  0
   28.0784  -21.2121  -16.2970 O   0  0  0  0  0  0  0  0  0  0  0  0
   26.7309  -22.5406  -14.8776 C   0  0  0  0  0  0  0  0  0  0  0  0
   25.2915  -22.9377  -14.7876 C   0  0  0  0  0  0  0  0  0  0  0  0
   24.4806  -21.9605  -14.0161 C   0  0  2  0  0  0  0  0  0  0  0  0
   24.9804  -21.8744  -12.6398 N   0  0  0  0  0  0  0  0  0  0  0  0
   23.0670  -22.3630  -13.9464 C   0  0  0  0  0  0  0  0  0  0  0  0
   22.6317  -22.7851  -12.8194 O   0  0  0  0  0  0  0  0  0  0  0  0
   22.1907  -22.2948  -15.0536 N   0  0  0  0  0  0  0  0  0  0  0  0
   20.7356  -22.4816  -14.7924 C   0  0  1  0  0  0  0  0  0  0  0  0
   20.4165  -21.4555  -13.7642 C   0  0  0  0  0  0  0  0  0  0  0  0
   19.0013  -21.3883  -13.3277 C   0  0  0  0  0  0  0  0  0  0  0  0
   18.7414  -20.3792  -12.2818 C   0  0  0  0  0  0  0  0  0  0  0  0
   17.9293  -20.6340  -11.3439 O   0  0  0  0  0  0  0  0  0  0  0  0
   19.9917  -22.4635  -16.0410 C   0  0  0  0  0  0  0  0  0  0  0  0
   20.4505  -21.7950  -17.0291 O   0  0  0  0  0  0  0  0  0  0  0  0
   19.3841  -19.1257  -12.2947 O   0  0  0  0  0  0  0  0  0  0  0  0
   18.8046  -23.1209  -16.2851 O   0  0  0  0  0  0  0  0  0  0  0  0
  2  3  2  0
  2  1  1  0
  4  3  1  0
  5  4  2  0
  6  5  1  0
  7  6  1  0
  7  8  1  6
  9  7  1  0
  9 10  2  0
 11  5  1  0
 11 12  2  0
 12  2  1  0
 13 14  1  0
 14 15  2  0
 14 16  1  0
 16 17  1  0
 18 17  1  6
 18 19  1  0
 19  9  1  0
 20 18  1  0
 21 20  2  0
 22 20  1  0
 23 22  1  0
 23 28  1  0
 23 24  1  1
 25 24  1  0
 26 25  1  0
 27 26  2  0
 28 31  1  0
 29 28  2  0
 30 26  1  0
M  END
$$$$
