YQE.pdb
     RDKit          3D

 31 31  0  0  1  0  0  0  0  0999 V2000
   23.3169  -17.4423  -14.8386 O   0  0  0  0  0  0  0  0  0  0  0  0
   23.5203  -16.1544  -15.3467 C   0  0  0  0  0  0  0  0  0  0  0  0
   24.2087  -15.2294  -14.5786 C   0  0  0  0  0  0  0  0  0  0  0  0
   24.3997  -13.9477  -15.1082 C   0  0  0  0  0  0  0  0  0  0  0  0
   23.9279  -13.6046  -16.3423 C   0  0  0  0  0  0  0  0  0  0  0  0
   24.1448  -12.2512  -16.8710 C   0  0  0  0  0  0  0  0  0  0  0  0
   23.1934  -11.3222  -16.1004 C   0  0  2  0  0  0  0  0  0  0  0  0
   21.8459  -11.7962  -16.2898 N   0  0  0  0  0  0  0  0  0  0  0  0
   23.3466   -9.9924  -16.7078 C   0  0  0  0  0  0  0  0  0  0  0  0
   24.4708   -9.4683  -16.7547 O   0  0  0  0  0  0  0  0  0  0  0  0
   23.2491  -14.5392  -17.0833 C   0  0  0  0  0  0  0  0  0  0  0  0
   23.0307  -15.8350  -16.6009 C   0  0  0  0  0  0  0  0  0  0  0  0
   21.9477   -6.9829  -21.8061 N   0  0  0  0  0  0  0  0  0  0  0  0
   22.9112   -7.9339  -21.4416 C   0  0  0  0  0  0  0  0  0  0  0  0
   23.7093   -8.3666  -22.2997 O   0  0  0  0  0  0  0  0  0  0  0  0
   23.0442   -8.4810  -20.0325 C   0  0  0  0  0  0  0  0  0  0  0  0
   21.9222   -7.9567  -19.1937 C   0  0  0  0  0  0  0  0  0  0  0  0
   22.2496   -7.9558  -17.7445 C   0  0  2  0  0  0  0  0  0  0  0  0
   22.2276   -9.3283  -17.2275 N   0  0  0  0  0  0  0  0  0  0  0  0
   21.2722   -7.1773  -16.9674 C   0  0  0  0  0  0  0  0  0  0  0  0
   20.0331   -7.3642  -17.2271 O   0  0  0  0  0  0  0  0  0  0  0  0
   21.6450   -6.2562  -15.9618 N   0  0  0  0  0  0  0  0  0  0  0  0
   20.5526   -5.5345  -15.2504 C   0  0  1  0  0  0  0  0  0  0  0  0
   19.8706   -4.7607  -16.3218 C   0  0  0  0  0  0  0  0  0  0  0  0
   18.6409   -4.0362  -15.9205 C   0  0  0  0  0  0  0  0  0  0  0  0
   18.6522   -2.5989  -16.2575 C   0  0  0  0  0  0  0  0  0  0  0  0
   19.6450   -2.0986  -16.8643 O   0  0  0  0  0  0  0  0  0  0  0  0
   19.7633   -6.4648  -14.4603 C   0  0  0  0  0  0  0  0  0  0  0  0
   18.7190   -6.0398  -13.8583 O   0  0  0  0  0  0  0  0  0  0  0  0
   17.5728   -1.7576  -15.9236 O   0  0  0  0  0  0  0  0  0  0  0  0
   20.0258   -7.8077  -14.2910 O   0  0  0  0  0  0  0  0  0  0  0  0
  2  3  2  0
  2  1  1  0
  4  3  1  0
  5  4  2  0
  6  5  1  0
  7  6  1  0
  7  8  1  6
  9  7  1  0
  9 10  2  0
 11  5  1  0
 11 12  2  0
 12  2  1  0
 13 14  1  0
 14 15  2  0
 14 16  1  0
 16 17  1  0
 18 17  1  6
 18 19  1  0
 19  9  1  0
 20 18  1  0
 21 20  2  0
 22 20  1  0
 23 22  1  0
 23 28  1  0
 23 24  1  6
 25 24  1  0
 26 25  1  0
 27 26  2  0
 28 31  1  0
 29 28  2  0
 30 26  1  0
M  END
$$$$
