LSQ.pdb
     RDKit          3D

 24 23  0  0  1  0  0  0  0  0999 V2000
   27.3122  -12.6804  -14.9216 C   0  0  0  0  0  0  0  0  0  0  0  0
   27.1732  -12.3770  -16.3745 C   0  0  2  0  0  0  0  0  0  0  0  0
   28.5356  -12.0223  -16.9665 C   0  0  0  0  0  0  0  0  0  0  0  0
   26.1353  -11.3965  -16.7720 C   0  0  0  0  0  0  0  0  0  0  0  0
   24.7632  -11.5463  -16.2552 C   0  0  2  0  0  0  0  0  0  0  0  0
   24.2928  -12.8463  -16.7923 N   0  0  0  0  0  0  0  0  0  0  0  0
   23.7821  -10.5058  -16.5143 C   0  0  0  0  0  0  0  0  0  0  0  0
   24.0117   -9.2800  -16.3761 O   0  0  0  0  0  0  0  0  0  0  0  0
   19.7593  -11.5174  -16.8471 O   0  0  0  0  0  0  0  0  0  0  0  0
   20.2046  -10.5287  -17.7353 C   0  0  0  0  0  0  0  0  0  0  0  0
   21.4290   -9.8063  -17.1551 C   0  0  2  0  0  0  0  0  0  0  0  0
   22.4368  -10.7997  -16.9603 N   0  0  0  0  0  0  0  0  0  0  0  0
   21.0623   -9.0865  -15.9238 C   0  0  0  0  0  0  0  0  0  0  0  0
   21.2296   -9.6637  -14.8205 O   0  0  0  0  0  0  0  0  0  0  0  0
   23.1786   -4.1394  -13.8499 N   0  0  0  0  0  0  0  0  0  0  0  0
   22.3214   -3.9105  -14.9427 C   0  0  0  0  0  0  0  0  0  0  0  0
   22.5027   -2.8919  -15.6504 O   0  0  0  0  0  0  0  0  0  0  0  0
   21.2151   -4.8691  -15.2495 C   0  0  0  0  0  0  0  0  0  0  0  0
   21.2483   -6.0553  -14.3412 C   0  0  0  0  0  0  0  0  0  0  0  0
   20.2161   -7.0887  -14.6385 C   0  0  2  0  0  0  0  0  0  0  0  0
   20.5282   -7.7717  -15.9118 N   0  0  0  0  0  0  0  0  0  0  0  0
   18.8981   -6.4432  -14.8076 C   0  0  0  0  0  0  0  0  0  0  0  0
   18.2827   -6.5014  -16.0725 O   0  0  0  0  0  0  0  0  0  0  0  0
   18.2738   -5.8350  -13.8910 O   0  0  0  0  0  0  0  0  0  0  0  0
  2  1  1  1
  2  3  1  0
  4  5  1  0
  4  2  1  0
  5  7  1  0
  5  6  1  6
  7  8  2  0
 10  9  1  0
 11 10  1  1
 12 11  1  0
 12  7  1  0
 13 11  1  0
 13 14  2  0
 16 15  1  0
 16 17  2  0
 18 16  1  0
 19 18  1  0
 20 21  1  0
 20 19  1  6
 21 13  1  0
 22 20  1  0
 23 22  1  0
 24 22  2  0
M  END
$$$$
