LSQ.pdb
     RDKit          3D

 24 23  0  0  1  0  0  0  0  0999 V2000
   28.4321  -16.5318  -14.7773 C   0  0  0  0  0  0  0  0  0  0  0  0
   27.7464  -17.0922  -15.9765 C   0  0  2  0  0  0  0  0  0  0  0  0
   26.9856  -15.9875  -16.7068 C   0  0  0  0  0  0  0  0  0  0  0  0
   26.9041  -18.2961  -15.7824 C   0  0  0  0  0  0  0  0  0  0  0  0
   27.4556  -19.4553  -15.0583 C   0  0  2  0  0  0  0  0  0  0  0  0
   28.3701  -20.1097  -16.0255 N   0  0  0  0  0  0  0  0  0  0  0  0
   26.5515  -20.4322  -14.4748 C   0  0  0  0  0  0  0  0  0  0  0  0
   25.9709  -21.3276  -15.1350 O   0  0  0  0  0  0  0  0  0  0  0  0
   25.2349  -19.8614  -10.5167 O   0  0  0  0  0  0  0  0  0  0  0  0
   25.3745  -21.1810  -10.9681 C   0  0  0  0  0  0  0  0  0  0  0  0
   25.1927  -21.2429  -12.4915 C   0  0  2  0  0  0  0  0  0  0  0  0
   26.2394  -20.4556  -13.0616 N   0  0  0  0  0  0  0  0  0  0  0  0
   23.8419  -20.7901  -12.8643 C   0  0  0  0  0  0  0  0  0  0  0  0
   23.6641  -19.5692  -13.1016 O   0  0  0  0  0  0  0  0  0  0  0  0
   21.1226  -19.0762  -16.2365 N   0  0  0  0  0  0  0  0  0  0  0  0
   19.8649  -19.6642  -16.0044 C   0  0  0  0  0  0  0  0  0  0  0  0
   18.8410  -19.1009  -16.4582 O   0  0  0  0  0  0  0  0  0  0  0  0
   19.7577  -20.9388  -15.2293 C   0  0  0  0  0  0  0  0  0  0  0  0
   21.0967  -21.4149  -14.7670 C   0  0  0  0  0  0  0  0  0  0  0  0
   21.3883  -21.1370  -13.3318 C   0  0  2  0  0  0  0  0  0  0  0  0
   22.7240  -21.6578  -12.9714 N   0  0  0  0  0  0  0  0  0  0  0  0
   20.4076  -21.8387  -12.4785 C   0  0  0  0  0  0  0  0  0  0  0  0
   19.2096  -21.1751  -12.1524 O   0  0  0  0  0  0  0  0  0  0  0  0
   20.5651  -23.0044  -12.0134 O   0  0  0  0  0  0  0  0  0  0  0  0
  2  1  1  1
  2  3  1  0
  4  5  1  0
  4  2  1  0
  5  7  1  0
  5  6  1  6
  7  8  2  0
 10  9  1  0
 11 10  1  1
 12 11  1  0
 12  7  1  0
 13 11  1  0
 13 14  2  0
 16 15  1  0
 16 17  2  0
 18 16  1  0
 19 18  1  0
 20 21  1  0
 20 19  1  6
 21 13  1  0
 22 20  1  0
 23 22  1  0
 24 22  2  0
M  END
$$$$
