LSQ.pdb
     RDKit          3D

 24 23  0  0  1  0  0  0  0  0999 V2000
   29.9725  -19.8201  -10.2738 C   0  0  0  0  0  0  0  0  0  0  0  0
   29.4813  -21.2252  -10.3562 C   0  0  2  0  0  0  0  0  0  0  0  0
   30.6321  -22.1600  -10.7227 C   0  0  0  0  0  0  0  0  0  0  0  0
   28.2841  -21.4831  -11.1908 C   0  0  0  0  0  0  0  0  0  0  0  0
   27.0696  -20.6744  -10.9827 C   0  0  2  0  0  0  0  0  0  0  0  0
   26.6857  -20.9185   -9.5711 N   0  0  0  0  0  0  0  0  0  0  0  0
   25.9252  -20.8612  -11.8589 C   0  0  0  0  0  0  0  0  0  0  0  0
   26.0101  -20.9553  -13.1073 O   0  0  0  0  0  0  0  0  0  0  0  0
   21.9875  -20.8473  -10.2965 O   0  0  0  0  0  0  0  0  0  0  0  0
   22.3530  -21.8092  -11.2483 C   0  0  0  0  0  0  0  0  0  0  0  0
   23.4385  -21.2493  -12.1789 C   0  0  2  0  0  0  0  0  0  0  0  0
   24.5703  -20.9558  -11.3585 N   0  0  0  0  0  0  0  0  0  0  0  0
   22.9263  -20.0837  -12.9190 C   0  0  0  0  0  0  0  0  0  0  0  0
   23.0410  -18.9462  -12.3981 O   0  0  0  0  0  0  0  0  0  0  0  0
   23.8300  -18.6983  -18.6899 N   0  0  0  0  0  0  0  0  0  0  0  0
   22.9665  -17.6420  -18.3437 C   0  0  0  0  0  0  0  0  0  0  0  0
   22.8153  -16.6952  -19.1512 O   0  0  0  0  0  0  0  0  0  0  0  0
   22.2446  -17.6540  -17.0338 C   0  0  0  0  0  0  0  0  0  0  0  0
   22.6127  -18.8484  -16.2146 C   0  0  0  0  0  0  0  0  0  0  0  0
   21.8834  -18.9560  -14.9190 C   0  0  2  0  0  0  0  0  0  0  0  0
   22.3075  -20.1720  -14.1931 N   0  0  0  0  0  0  0  0  0  0  0  0
   20.4340  -19.0886  -15.1719 C   0  0  0  0  0  0  0  0  0  0  0  0
   19.7040  -17.9305  -15.5002 O   0  0  0  0  0  0  0  0  0  0  0  0
   19.7921  -20.1770  -15.1149 O   0  0  0  0  0  0  0  0  0  0  0  0
  2  1  1  6
  2  3  1  0
  4  5  1  0
  4  2  1  0
  5  7  1  0
  5  6  1  1
  7  8  2  0
 10  9  1  0
 11 10  1  1
 12 11  1  0
 12  7  1  0
 13 11  1  0
 13 14  2  0
 16 15  1  0
 16 17  2  0
 18 16  1  0
 19 18  1  0
 20 21  1  0
 20 19  1  6
 21 13  1  0
 22 20  1  0
 23 22  1  0
 24 22  2  0
M  END
$$$$
