LSQ.pdb
     RDKit          3D

 24 23  0  0  1  0  0  0  0  0999 V2000
   18.0632  -15.8135  -18.9436 C   0  0  0  0  0  0  0  0  0  0  0  0
   17.6758  -15.6856  -17.5098 C   0  0  2  0  0  0  0  0  0  0  0  0
   16.1677  -15.8720  -17.3578 C   0  0  0  0  0  0  0  0  0  0  0  0
   18.1527  -14.4890  -16.7768 C   0  0  0  0  0  0  0  0  0  0  0  0
   19.5845  -14.1415  -16.8134 C   0  0  2  0  0  0  0  0  0  0  0  0
   20.2654  -15.2537  -16.1068 N   0  0  0  0  0  0  0  0  0  0  0  0
   20.0251  -12.8608  -16.2861 C   0  0  0  0  0  0  0  0  0  0  0  0
   19.7371  -12.4421  -15.1388 O   0  0  0  0  0  0  0  0  0  0  0  0
   22.2907  -10.2580  -18.7140 O   0  0  0  0  0  0  0  0  0  0  0  0
   22.5800  -10.3455  -17.3454 C   0  0  0  0  0  0  0  0  0  0  0  0
   21.3092  -10.6893  -16.5551 C   0  0  2  0  0  0  0  0  0  0  0  0
   20.8455  -11.9460  -17.0510 N   0  0  0  0  0  0  0  0  0  0  0  0
   20.3213   -9.6041  -16.6777 C   0  0  0  0  0  0  0  0  0  0  0  0
   19.3541   -9.7611  -17.4639 O   0  0  0  0  0  0  0  0  0  0  0  0
   15.5708   -8.6401  -14.7896 N   0  0  0  0  0  0  0  0  0  0  0  0
   15.6764   -7.2969  -15.1969 C   0  0  0  0  0  0  0  0  0  0  0  0
   14.6537   -6.5728  -15.1640 O   0  0  0  0  0  0  0  0  0  0  0  0
   16.9885   -6.7483  -15.6601 C   0  0  0  0  0  0  0  0  0  0  0  0
   18.0620   -7.7872  -15.6235 C   0  0  0  0  0  0  0  0  0  0  0  0
   19.3836   -7.3266  -16.1366 C   0  0  2  0  0  0  0  0  0  0  0  0
   20.3995   -8.3851  -15.9553 N   0  0  0  0  0  0  0  0  0  0  0  0
   19.8391   -6.1548  -15.3608 C   0  0  0  0  0  0  0  0  0  0  0  0
   19.1412   -4.9414  -15.5109 O   0  0  0  0  0  0  0  0  0  0  0  0
   20.8204   -6.1597  -14.5626 O   0  0  0  0  0  0  0  0  0  0  0  0
  2  1  1  6
  2  3  1  0
  4  5  1  0
  4  2  1  0
  5  7  1  0
  5  6  1  1
  7  8  2  0
 10  9  1  0
 11 10  1  6
 12 11  1  0
 12  7  1  0
 13 11  1  0
 13 14  2  0
 16 15  1  0
 16 17  2  0
 18 16  1  0
 19 18  1  0
 20 21  1  0
 20 19  1  1
 21 13  1  0
 22 20  1  0
 23 22  1  0
 24 22  2  0
M  END
$$$$
