LSQ.pdb
     RDKit          3D

 24 23  0  0  1  0  0  0  0  0999 V2000
   21.7284  -13.3434  -19.5305 C   0  0  0  0  0  0  0  0  0  0  0  0
   20.2449  -13.3180  -19.6751 C   0  0  2  0  0  0  0  0  0  0  0  0
   19.8613  -13.4560  -21.1468 C   0  0  0  0  0  0  0  0  0  0  0  0
   19.5134  -12.2054  -19.0242 C   0  0  0  0  0  0  0  0  0  0  0  0
   19.8394  -11.8413  -17.6337 C   0  0  2  0  0  0  0  0  0  0  0  0
   19.4660  -13.0306  -16.8301 N   0  0  0  0  0  0  0  0  0  0  0  0
   19.2661  -10.6378  -17.0547 C   0  0  0  0  0  0  0  0  0  0  0  0
   18.0596  -10.3134  -17.1718 O   0  0  0  0  0  0  0  0  0  0  0  0
   21.3712   -8.7512  -14.1422 O   0  0  0  0  0  0  0  0  0  0  0  0
   19.9834   -8.5615  -14.1938 C   0  0  0  0  0  0  0  0  0  0  0  0
   19.5049   -8.5369  -15.6526 C   0  0  2  0  0  0  0  0  0  0  0  0
   20.0498   -9.6974  -16.2824 N   0  0  0  0  0  0  0  0  0  0  0  0
   19.8985   -7.2734  -16.2987 C   0  0  0  0  0  0  0  0  0  0  0  0
   20.9967   -7.2290  -16.9072 O   0  0  0  0  0  0  0  0  0  0  0  0
   17.7499   -0.3463  -18.1976 N   0  0  0  0  0  0  0  0  0  0  0  0
   17.6235   -1.6309  -17.6363 C   0  0  0  0  0  0  0  0  0  0  0  0
   16.5592   -1.9308  -17.0458 O   0  0  0  0  0  0  0  0  0  0  0  0
   18.7427   -2.6171  -17.7454 C   0  0  0  0  0  0  0  0  0  0  0  0
   18.3965   -3.9154  -17.0915 C   0  0  0  0  0  0  0  0  0  0  0  0
   19.5324   -4.8749  -16.9859 C   0  0  2  0  0  0  0  0  0  0  0  0
   19.1045   -6.0974  -16.2734 N   0  0  0  0  0  0  0  0  0  0  0  0
   20.6222   -4.2723  -16.1914 C   0  0  0  0  0  0  0  0  0  0  0  0
   21.5919   -3.5028  -16.8621 O   0  0  0  0  0  0  0  0  0  0  0  0
   20.7514   -4.3970  -14.9393 O   0  0  0  0  0  0  0  0  0  0  0  0
  2  1  1  6
  2  3  1  0
  4  5  1  0
  4  2  1  0
  5  7  1  0
  5  6  1  1
  7  8  2  0
 10  9  1  0
 11 10  1  1
 12 11  1  0
 12  7  1  0
 13 11  1  0
 13 14  2  0
 16 15  1  0
 16 17  2  0
 18 16  1  0
 19 18  1  0
 20 21  1  0
 20 19  1  1
 21 13  1  0
 22 20  1  0
 23 22  1  0
 24 22  2  0
M  END
$$$$
