QTS.pdb
     RDKit          3D

 23 22  0  0  1  0  0  0  0  0999 V2000
   18.0422  -15.0817  -15.4500 N   0  0  0  0  0  0  0  0  0  0  0  0
   17.4440  -14.7448  -16.7172 C   0  0  0  0  0  0  0  0  0  0  0  0
   16.8504  -15.6758  -17.3070 O   0  0  0  0  0  0  0  0  0  0  0  0
   17.5910  -13.3653  -17.1752 C   0  0  0  0  0  0  0  0  0  0  0  0
   18.2303  -12.4822  -16.1395 C   0  0  0  0  0  0  0  0  0  0  0  0
   18.7486  -11.2348  -16.7730 C   0  0  2  0  0  0  0  0  0  0  0  0
   19.7345  -11.6607  -17.7804 N   0  0  0  0  0  0  0  0  0  0  0  0
   19.5154  -10.3943  -15.7938 C   0  0  0  0  0  0  0  0  0  0  0  0
   19.0192  -10.0596  -14.6948 O   0  0  0  0  0  0  0  0  0  0  0  0
   23.1062  -11.0839  -14.4941 C   0  0  0  0  0  0  0  0  0  0  0  0
   23.0578   -9.6827  -15.0421 C   0  0  1  0  0  0  0  0  0  0  0  0
   23.5845   -9.6863  -16.3302 O   0  0  0  0  0  0  0  0  0  0  0  0
   21.6243   -9.1680  -15.1623 C   0  0  2  0  0  0  0  0  0  0  0  0
   20.8376   -9.9411  -16.0700 N   0  0  0  0  0  0  0  0  0  0  0  0
   21.6312   -7.7081  -15.5460 C   0  0  0  0  0  0  0  0  0  0  0  0
   21.8696   -7.3596  -16.7284 O   0  0  0  0  0  0  0  0  0  0  0  0
   19.2762   -4.9156  -13.8613 O   0  0  0  0  0  0  0  0  0  0  0  0
   20.0985   -4.6354  -14.9234 C   0  0  0  0  0  0  0  0  0  0  0  0
   21.4336   -5.3118  -14.7777 C   0  0  2  0  0  0  0  0  0  0  0  0
   21.3655   -6.7268  -14.5579 N   0  0  0  0  0  0  0  0  0  0  0  0
   22.1730   -4.6278  -13.6758 C   0  0  0  0  0  0  0  0  0  0  0  0
   22.5649   -3.3049  -13.7787 O   0  0  0  0  0  0  0  0  0  0  0  0
   22.4538   -5.2374  -12.6354 O   0  0  0  0  0  0  0  0  0  0  0  0
  2  1  1  0
  2  3  2  0
  4  2  1  0
  5  6  1  0
  5  4  1  0
  6  7  1  6
  8  9  2  0
  8  6  1  0
 11 10  1  6
 11 13  1  0
 12 11  1  0
 13 15  1  0
 13 14  1  6
 14  8  1  0
 15 20  1  0
 16 15  2  0
 18 17  1  0
 19 18  1  1
 19 21  1  0
 20 19  1  0
 21 23  2  0
 21 22  1  0
M  END
$$$$
