QTS.pdb
     RDKit          3D

 23 22  0  0  1  0  0  0  0  0999 V2000
   20.3582  -15.8331  -15.9485 N   0  0  0  0  0  0  0  0  0  0  0  0
   19.0710  -15.1999  -16.0871 C   0  0  0  0  0  0  0  0  0  0  0  0
   18.0803  -15.9005  -15.7793 O   0  0  0  0  0  0  0  0  0  0  0  0
   19.0578  -13.8198  -16.5664 C   0  0  0  0  0  0  0  0  0  0  0  0
   18.7573  -12.8349  -15.4704 C   0  0  0  0  0  0  0  0  0  0  0  0
   17.8101  -11.7911  -15.9594 C   0  0  2  0  0  0  0  0  0  0  0  0
   17.1440  -12.3584  -17.1438 N   0  0  0  0  0  0  0  0  0  0  0  0
   18.5356  -10.5735  -16.4537 C   0  0  0  0  0  0  0  0  0  0  0  0
   19.1936  -10.5952  -17.5180 O   0  0  0  0  0  0  0  0  0  0  0  0
   17.2881   -7.4782  -17.7810 C   0  0  0  0  0  0  0  0  0  0  0  0
   18.0999   -7.0684  -16.5815 C   0  0  1  0  0  0  0  0  0  0  0  0
   17.2477   -6.9242  -15.4908 O   0  0  0  0  0  0  0  0  0  0  0  0
   19.1215   -8.1364  -16.1941 C   0  0  2  0  0  0  0  0  0  0  0  0
   18.5082   -9.3427  -15.7367 N   0  0  0  0  0  0  0  0  0  0  0  0
   20.0811   -7.5839  -15.1682 C   0  0  0  0  0  0  0  0  0  0  0  0
   19.9105   -7.8128  -13.9456 O   0  0  0  0  0  0  0  0  0  0  0  0
   23.1876   -5.0435  -16.4997 O   0  0  0  0  0  0  0  0  0  0  0  0
   23.4553   -5.8432  -15.4172 C   0  0  0  0  0  0  0  0  0  0  0  0
   22.1910   -6.2712  -14.7247 C   0  0  2  0  0  0  0  0  0  0  0  0
   21.1826   -6.8003  -15.5955 N   0  0  0  0  0  0  0  0  0  0  0  0
   21.6783   -5.1029  -13.9495 C   0  0  0  0  0  0  0  0  0  0  0  0
   22.3545   -4.6123  -12.8467 O   0  0  0  0  0  0  0  0  0  0  0  0
   20.6253   -4.5428  -14.2815 O   0  0  0  0  0  0  0  0  0  0  0  0
  2  1  1  0
  2  3  2  0
  4  2  1  0
  5  6  1  0
  5  4  1  0
  6  7  1  6
  8  9  2  0
  8  6  1  0
 11 10  1  6
 11 13  1  0
 12 11  1  0
 13 15  1  0
 13 14  1  1
 14  8  1  0
 15 20  1  0
 16 15  2  0
 18 17  1  0
 19 18  1  6
 19 21  1  0
 20 19  1  0
 21 23  2  0
 21 22  1  0
M  END
$$$$
