QTS.pdb
     RDKit          3D

 23 22  0  0  1  0  0  0  0  0999 V2000
   15.2329  -11.8908  -13.7068 N   0  0  0  0  0  0  0  0  0  0  0  0
   14.8676  -12.6595  -14.8698 C   0  0  0  0  0  0  0  0  0  0  0  0
   13.7138  -13.1451  -14.8648 O   0  0  0  0  0  0  0  0  0  0  0  0
   15.8721  -12.7889  -15.9228 C   0  0  0  0  0  0  0  0  0  0  0  0
   17.1047  -11.9743  -15.6428 C   0  0  0  0  0  0  0  0  0  0  0  0
   18.1531  -12.2552  -16.6665 C   0  0  2  0  0  0  0  0  0  0  0  0
   18.5148  -13.6740  -16.5104 N   0  0  0  0  0  0  0  0  0  0  0  0
   19.4141  -11.4887  -16.3918 C   0  0  0  0  0  0  0  0  0  0  0  0
   20.3093  -11.9525  -15.6504 O   0  0  0  0  0  0  0  0  0  0  0  0
   22.1982  -10.4463  -18.5240 C   0  0  0  0  0  0  0  0  0  0  0  0
   21.6437   -9.1664  -17.9580 C   0  0  1  0  0  0  0  0  0  0  0  0
   20.7860   -8.5964  -18.8940 O   0  0  0  0  0  0  0  0  0  0  0  0
   20.8103   -9.4139  -16.7017 C   0  0  2  0  0  0  0  0  0  0  0  0
   19.6484  -10.2034  -16.9602 N   0  0  0  0  0  0  0  0  0  0  0  0
   20.4490   -8.0985  -16.0553 C   0  0  0  0  0  0  0  0  0  0  0  0
   19.3451   -7.5508  -16.2955 O   0  0  0  0  0  0  0  0  0  0  0  0
   21.7407   -6.8976  -12.3494 O   0  0  0  0  0  0  0  0  0  0  0  0
   22.0037   -5.9665  -13.3224 C   0  0  0  0  0  0  0  0  0  0  0  0
   21.1688   -6.2043  -14.5502 C   0  0  2  0  0  0  0  0  0  0  0  0
   21.3686   -7.4813  -15.1703 N   0  0  0  0  0  0  0  0  0  0  0  0
   21.4373   -5.0900  -15.5066 C   0  0  0  0  0  0  0  0  0  0  0  0
   21.9322   -5.3286  -16.7763 O   0  0  0  0  0  0  0  0  0  0  0  0
   21.2201   -3.9158  -15.1792 O   0  0  0  0  0  0  0  0  0  0  0  0
  2  1  1  0
  2  3  2  0
  4  2  1  0
  5  6  1  0
  5  4  1  0
  6  7  1  1
  8  9  2  0
  8  6  1  0
 11 10  1  6
 11 13  1  0
 12 11  1  0
 13 15  1  0
 13 14  1  6
 14  8  1  0
 15 20  1  0
 16 15  2  0
 18 17  1  0
 19 18  1  1
 19 21  1  0
 20 19  1  0
 21 23  2  0
 21 22  1  0
M  END
$$$$
