QTS.pdb
     RDKit          3D

 23 22  0  0  1  0  0  0  0  0999 V2000
   15.3170  -11.3281  -13.3886 N   0  0  0  0  0  0  0  0  0  0  0  0
   14.8726  -12.1014  -14.5207 C   0  0  0  0  0  0  0  0  0  0  0  0
   13.7578  -12.6579  -14.3998 O   0  0  0  0  0  0  0  0  0  0  0  0
   15.7606  -12.1529  -15.6796 C   0  0  0  0  0  0  0  0  0  0  0  0
   17.0398  -11.3945  -15.4562 C   0  0  0  0  0  0  0  0  0  0  0  0
   17.9768  -11.6149  -16.5960 C   0  0  2  0  0  0  0  0  0  0  0  0
   18.4171  -13.0171  -16.5050 N   0  0  0  0  0  0  0  0  0  0  0  0
   19.2252  -10.7939  -16.4526 C   0  0  0  0  0  0  0  0  0  0  0  0
   20.2072  -11.2113  -15.7987 O   0  0  0  0  0  0  0  0  0  0  0  0
   21.3681   -9.1592  -19.2330 C   0  0  0  0  0  0  0  0  0  0  0  0
   20.9513   -8.0866  -18.2626 C   0  0  1  0  0  0  0  0  0  0  0  0
   19.8536   -7.4100  -18.7860 O   0  0  0  0  0  0  0  0  0  0  0  0
   20.5010   -8.6728  -16.9255 C   0  0  2  0  0  0  0  0  0  0  0  0
   19.3486   -9.5073  -17.0520 N   0  0  0  0  0  0  0  0  0  0  0  0
   20.2701   -7.5637  -15.9279 C   0  0  0  0  0  0  0  0  0  0  0  0
   19.1106   -7.1381  -15.7029 O   0  0  0  0  0  0  0  0  0  0  0  0
   22.3193   -4.9527  -12.3572 O   0  0  0  0  0  0  0  0  0  0  0  0
   22.5268   -5.8190  -13.4009 C   0  0  0  0  0  0  0  0  0  0  0  0
   21.2774   -6.0052  -14.2167 C   0  0  2  0  0  0  0  0  0  0  0  0
   21.3766   -7.0018  -15.2424 N   0  0  0  0  0  0  0  0  0  0  0  0
   20.9034   -4.6770  -14.7868 C   0  0  0  0  0  0  0  0  0  0  0  0
   20.0554   -3.8138  -14.1161 O   0  0  0  0  0  0  0  0  0  0  0  0
   21.3498   -4.3168  -15.8840 O   0  0  0  0  0  0  0  0  0  0  0  0
  2  1  1  0
  2  3  2  0
  4  2  1  0
  5  6  1  0
  5  4  1  0
  6  7  1  1
  8  9  2  0
  8  6  1  0
 11 10  1  6
 11 13  1  0
 12 11  1  0
 13 15  1  0
 13 14  1  6
 14  8  1  0
 15 20  1  0
 16 15  2  0
 18 17  1  0
 19 18  1  6
 19 21  1  0
 20 19  1  0
 21 23  2  0
 21 22  1  0
M  END
$$$$
