QTS.pdb
     RDKit          3D

 23 22  0  0  1  0  0  0  0  0999 V2000
   14.8222  -11.4629  -15.7793 N   0  0  0  0  0  0  0  0  0  0  0  0
   15.2339  -12.5632  -16.6140 C   0  0  0  0  0  0  0  0  0  0  0  0
   14.3154  -13.2948  -17.0478 O   0  0  0  0  0  0  0  0  0  0  0  0
   16.6661  -12.7071  -16.8646 C   0  0  0  0  0  0  0  0  0  0  0  0
   17.4798  -11.6561  -16.1613 C   0  0  0  0  0  0  0  0  0  0  0  0
   18.9284  -11.8303  -16.4726 C   0  0  2  0  0  0  0  0  0  0  0  0
   19.2628  -13.2212  -16.1234 N   0  0  0  0  0  0  0  0  0  0  0  0
   19.7909  -10.9778  -15.5880 C   0  0  0  0  0  0  0  0  0  0  0  0
   19.7511  -11.0847  -14.3417 O   0  0  0  0  0  0  0  0  0  0  0  0
   23.4398  -10.7336  -15.1323 C   0  0  0  0  0  0  0  0  0  0  0  0
   22.9963   -9.3620  -15.5656 C   0  0  1  0  0  0  0  0  0  0  0  0
   23.2012   -9.2363  -16.9363 O   0  0  0  0  0  0  0  0  0  0  0  0
   21.5023   -9.1461  -15.3300 C   0  0  2  0  0  0  0  0  0  0  0  0
   20.6903  -10.0119  -16.1247 N   0  0  0  0  0  0  0  0  0  0  0  0
   21.1484   -7.6967  -15.5587 C   0  0  0  0  0  0  0  0  0  0  0  0
   20.7239   -7.3114  -16.6756 O   0  0  0  0  0  0  0  0  0  0  0  0
   19.5305   -3.5768  -14.1513 O   0  0  0  0  0  0  0  0  0  0  0  0
   19.7532   -4.9163  -13.9532 C   0  0  0  0  0  0  0  0  0  0  0  0
   21.0328   -5.3625  -14.6048 C   0  0  2  0  0  0  0  0  0  0  0  0
   21.2989   -6.7672  -14.4988 N   0  0  0  0  0  0  0  0  0  0  0  0
   22.1459   -4.5553  -14.0231 C   0  0  0  0  0  0  0  0  0  0  0  0
   22.5174   -3.3376  -14.5647 O   0  0  0  0  0  0  0  0  0  0  0  0
   22.7663   -4.9638  -13.0325 O   0  0  0  0  0  0  0  0  0  0  0  0
  2  1  1  0
  2  3  2  0
  4  2  1  0
  5  6  1  0
  5  4  1  0
  6  7  1  1
  8  9  2  0
  8  6  1  0
 11 10  1  6
 11 13  1  0
 12 11  1  0
 13 15  1  0
 13 14  1  6
 14  8  1  0
 15 20  1  0
 16 15  2  0
 18 17  1  0
 19 18  1  1
 19 21  1  0
 20 19  1  0
 21 23  2  0
 21 22  1  0
M  END
$$$$
