QTS.pdb
     RDKit          3D

 23 22  0  0  1  0  0  0  0  0999 V2000
   17.0918  -13.3344  -14.3014 N   0  0  0  0  0  0  0  0  0  0  0  0
   15.6618  -13.3219  -14.4807 C   0  0  0  0  0  0  0  0  0  0  0  0
   15.0567  -14.3591  -14.1269 O   0  0  0  0  0  0  0  0  0  0  0  0
   15.0743  -12.1113  -15.0497 C   0  0  0  0  0  0  0  0  0  0  0  0
   16.0968  -11.0345  -15.2871 C   0  0  0  0  0  0  0  0  0  0  0  0
   15.4251   -9.7626  -15.6833 C   0  0  2  0  0  0  0  0  0  0  0  0
   14.7518  -10.0315  -16.9649 N   0  0  0  0  0  0  0  0  0  0  0  0
   16.4213   -8.6783  -15.9749 C   0  0  0  0  0  0  0  0  0  0  0  0
   17.0537   -8.6486  -17.0545 O   0  0  0  0  0  0  0  0  0  0  0  0
   16.0001   -5.0103  -16.3114 C   0  0  0  0  0  0  0  0  0  0  0  0
   17.0080   -5.2041  -15.2103 C   0  0  1  0  0  0  0  0  0  0  0  0
   16.3568   -5.1087  -13.9842 O   0  0  0  0  0  0  0  0  0  0  0  0
   17.6415   -6.5936  -15.2569 C   0  0  2  0  0  0  0  0  0  0  0  0
   16.6912   -7.6378  -15.0398 N   0  0  0  0  0  0  0  0  0  0  0  0
   18.7817   -6.6737  -14.2710 C   0  0  0  0  0  0  0  0  0  0  0  0
   18.6428   -7.2828  -13.1820 O   0  0  0  0  0  0  0  0  0  0  0  0
   23.2229   -7.1658  -13.1985 O   0  0  0  0  0  0  0  0  0  0  0  0
   22.1655   -7.1670  -14.0729 C   0  0  0  0  0  0  0  0  0  0  0  0
   21.1779   -6.0824  -13.7419 C   0  0  2  0  0  0  0  0  0  0  0  0
   20.0177   -6.0537  -14.5835 N   0  0  0  0  0  0  0  0  0  0  0  0
   21.9044   -4.7786  -13.7767 C   0  0  0  0  0  0  0  0  0  0  0  0
   22.6297   -4.3243  -12.6897 O   0  0  0  0  0  0  0  0  0  0  0  0
   21.8723   -4.0692  -14.7909 O   0  0  0  0  0  0  0  0  0  0  0  0
  2  1  1  0
  2  3  2  0
  4  2  1  0
  5  6  1  0
  5  4  1  0
  6  7  1  6
  8  9  2  0
  8  6  1  0
 11 10  1  6
 11 13  1  0
 12 11  1  0
 13 15  1  0
 13 14  1  1
 14  8  1  0
 15 20  1  0
 16 15  2  0
 18 17  1  0
 19 18  1  6
 19 21  1  0
 20 19  1  0
 21 23  2  0
 21 22  1  0
M  END
$$$$
