QTS.pdb
     RDKit          3D

 23 22  0  0  1  0  0  0  0  0999 V2000
   16.3095   -9.2168  -18.9179 N   0  0  0  0  0  0  0  0  0  0  0  0
   15.9755  -10.6186  -18.8999 C   0  0  0  0  0  0  0  0  0  0  0  0
   15.3525  -11.0458  -19.8981 O   0  0  0  0  0  0  0  0  0  0  0  0
   16.3961  -11.3867  -17.7304 C   0  0  0  0  0  0  0  0  0  0  0  0
   17.1168  -10.5405  -16.7175 C   0  0  0  0  0  0  0  0  0  0  0  0
   18.4975  -11.0613  -16.4979 C   0  0  2  0  0  0  0  0  0  0  0  0
   18.3498  -12.3317  -15.7680 N   0  0  0  0  0  0  0  0  0  0  0  0
   19.2879  -10.1670  -15.5876 C   0  0  0  0  0  0  0  0  0  0  0  0
   18.9345   -9.9669  -14.4039 O   0  0  0  0  0  0  0  0  0  0  0  0
   22.7475  -10.4176  -14.2771 C   0  0  0  0  0  0  0  0  0  0  0  0
   22.6866   -9.1163  -15.0313 C   0  0  1  0  0  0  0  0  0  0  0  0
   23.1998   -9.3143  -16.3096 O   0  0  0  0  0  0  0  0  0  0  0  0
   21.2496   -8.6303  -15.2123 C   0  0  2  0  0  0  0  0  0  0  0  0
   20.4718   -9.5079  -16.0280 N   0  0  0  0  0  0  0  0  0  0  0  0
   21.2462   -7.2234  -15.7594 C   0  0  0  0  0  0  0  0  0  0  0  0
   21.0740   -7.0153  -16.9854 O   0  0  0  0  0  0  0  0  0  0  0  0
   20.3193   -3.8762  -13.4512 O   0  0  0  0  0  0  0  0  0  0  0  0
   21.4885   -3.7656  -14.1608 C   0  0  0  0  0  0  0  0  0  0  0  0
   21.5447   -4.7622  -15.2855 C   0  0  2  0  0  0  0  0  0  0  0  0
   21.4397   -6.1319  -14.8756 N   0  0  0  0  0  0  0  0  0  0  0  0
   22.8061   -4.5198  -16.0463 C   0  0  0  0  0  0  0  0  0  0  0  0
   23.9063   -5.3470  -15.9071 O   0  0  0  0  0  0  0  0  0  0  0  0
   22.8944   -3.5624  -16.8264 O   0  0  0  0  0  0  0  0  0  0  0  0
  2  1  1  0
  2  3  2  0
  4  2  1  0
  5  6  1  0
  5  4  1  0
  6  7  1  1
  8  9  2  0
  8  6  1  0
 11 10  1  1
 11 13  1  0
 12 11  1  0
 13 15  1  0
 13 14  1  6
 14  8  1  0
 15 20  1  0
 16 15  2  0
 18 17  1  0
 19 18  1  1
 19 21  1  0
 20 19  1  0
 21 23  2  0
 21 22  1  0
M  END
$$$$
