QTS.pdb
     RDKit          3D

 23 22  0  0  1  0  0  0  0  0999 V2000
   27.8377  -19.2207   -7.7306 N   0  0  0  0  0  0  0  0  0  0  0  0
   26.6702  -19.6771   -7.0196 C   0  0  0  0  0  0  0  0  0  0  0  0
   26.5067  -19.2016   -5.8732 O   0  0  0  0  0  0  0  0  0  0  0  0
   25.8078  -20.6366   -7.7053 C   0  0  0  0  0  0  0  0  0  0  0  0
   26.3631  -21.0564   -9.0381 C   0  0  0  0  0  0  0  0  0  0  0  0
   25.6937  -20.3020  -10.1375 C   0  0  2  0  0  0  0  0  0  0  0  0
   24.2529  -20.5790  -10.0123 N   0  0  0  0  0  0  0  0  0  0  0  0
   26.0858  -20.8275  -11.4878 C   0  0  0  0  0  0  0  0  0  0  0  0
   27.2774  -21.0945  -11.7614 O   0  0  0  0  0  0  0  0  0  0  0  0
   24.3140  -23.7073  -13.6169 C   0  0  0  0  0  0  0  0  0  0  0  0
   24.4080  -22.4347  -14.4154 C   0  0  1  0  0  0  0  0  0  0  0  0
   23.1849  -21.7740  -14.3521 O   0  0  0  0  0  0  0  0  0  0  0  0
   25.4480  -21.4762  -13.8379 C   0  0  2  0  0  0  0  0  0  0  0  0
   25.1231  -21.0454  -12.5153 N   0  0  0  0  0  0  0  0  0  0  0  0
   25.6396  -20.3023  -14.7673 C   0  0  0  0  0  0  0  0  0  0  0  0
   25.1975  -19.1675  -14.4624 O   0  0  0  0  0  0  0  0  0  0  0  0
   28.9335  -19.6483  -17.2827 O   0  0  0  0  0  0  0  0  0  0  0  0
   27.7122  -19.7450  -17.9006 C   0  0  0  0  0  0  0  0  0  0  0  0
   26.5886  -19.4503  -16.9456 C   0  0  2  0  0  0  0  0  0  0  0  0
   26.3256  -20.4895  -15.9938 N   0  0  0  0  0  0  0  0  0  0  0  0
   25.3736  -19.1367  -17.7544 C   0  0  0  0  0  0  0  0  0  0  0  0
   25.2941  -17.9928  -18.5285 O   0  0  0  0  0  0  0  0  0  0  0  0
   24.4011  -19.9030  -17.7489 O   0  0  0  0  0  0  0  0  0  0  0  0
  2  1  1  0
  2  3  2  0
  4  2  1  0
  5  6  1  0
  5  4  1  0
  6  7  1  1
  8  9  2  0
  8  6  1  0
 11 10  1  1
 11 13  1  0
 12 11  1  0
 13 15  1  0
 13 14  1  1
 14  8  1  0
 15 20  1  0
 16 15  2  0
 18 17  1  0
 19 18  1  6
 19 21  1  0
 20 19  1  0
 21 23  2  0
 21 22  1  0
M  END
$$$$
