QTS.pdb
     RDKit          3D

 23 22  0  0  1  0  0  0  0  0999 V2000
   27.4231  -21.4491  -10.1012 N   0  0  0  0  0  0  0  0  0  0  0  0
   26.4909  -20.6893   -9.3070 C   0  0  0  0  0  0  0  0  0  0  0  0
   26.8919  -20.3452   -8.1722 O   0  0  0  0  0  0  0  0  0  0  0  0
   25.1889  -20.4023   -9.9045 C   0  0  0  0  0  0  0  0  0  0  0  0
   25.0646  -20.9504  -11.2992 C   0  0  0  0  0  0  0  0  0  0  0  0
   23.8230  -20.4366  -11.9475 C   0  0  2  0  0  0  0  0  0  0  0  0
   22.6993  -21.1385  -11.3048 N   0  0  0  0  0  0  0  0  0  0  0  0
   23.7567  -20.8194  -13.3974 C   0  0  0  0  0  0  0  0  0  0  0  0
   23.5980  -22.0097  -13.7497 O   0  0  0  0  0  0  0  0  0  0  0  0
   21.3776  -20.4191  -16.1071 C   0  0  0  0  0  0  0  0  0  0  0  0
   22.6041  -19.6582  -16.5346 C   0  0  1  0  0  0  0  0  0  0  0  0
   22.4544  -18.3239  -16.1688 O   0  0  0  0  0  0  0  0  0  0  0  0
   23.8614  -20.1622  -15.8279 C   0  0  2  0  0  0  0  0  0  0  0  0
   23.8708  -19.8490  -14.4343 N   0  0  0  0  0  0  0  0  0  0  0  0
   25.0914  -19.6274  -16.5203 C   0  0  0  0  0  0  0  0  0  0  0  0
   25.5520  -18.4981  -16.2222 O   0  0  0  0  0  0  0  0  0  0  0  0
   28.5662  -20.6229  -19.8213 O   0  0  0  0  0  0  0  0  0  0  0  0
   27.3864  -21.0205  -19.2445 C   0  0  0  0  0  0  0  0  0  0  0  0
   26.9050  -20.0185  -18.2318 C   0  0  2  0  0  0  0  0  0  0  0  0
   25.7275  -20.4120  -17.5151 N   0  0  0  0  0  0  0  0  0  0  0  0
   26.7000  -18.7194  -18.9383 C   0  0  0  0  0  0  0  0  0  0  0  0
   25.4770  -18.3791  -19.4883 O   0  0  0  0  0  0  0  0  0  0  0  0
   27.6312  -17.9107  -19.0476 O   0  0  0  0  0  0  0  0  0  0  0  0
  2  1  1  0
  2  3  2  0
  4  2  1  0
  5  6  1  0
  5  4  1  0
  6  7  1  1
  8  9  2  0
  8  6  1  0
 11 10  1  1
 11 13  1  0
 12 11  1  0
 13 15  1  0
 13 14  1  1
 14  8  1  0
 15 20  1  0
 16 15  2  0
 18 17  1  0
 19 18  1  6
 19 21  1  0
 20 19  1  0
 21 23  2  0
 21 22  1  0
M  END
$$$$
