YYW.pdb
     RDKit          3D

 39 42  0  0  1  0  0  0  0  0999 V2000
    9.6724  -21.3219   13.1199 O   0  0  0  0  0  0  0  0  0  0  0  0
    9.8295  -20.4372   14.1775 C   0  0  0  0  0  0  0  0  0  0  0  0
    9.7184  -20.9218   15.4752 C   0  0  0  0  0  0  0  0  0  0  0  0
    9.8714  -20.0594   16.5334 C   0  0  0  0  0  0  0  0  0  0  0  0
   10.1339  -18.7213   16.2665 C   0  0  0  0  0  0  0  0  0  0  0  0
   10.3012  -17.7780   17.3815 C   0  0  0  0  0  0  0  0  0  0  0  0
   10.0467  -18.5017   18.6874 C   0  0  2  0  0  0  0  0  0  0  0  0
    8.7003  -19.0334   18.7434 N   0  0  0  0  0  0  0  0  0  0  0  0
   10.2780  -17.5227   19.7779 C   0  0  0  0  0  0  0  0  0  0  0  0
   11.3372  -16.8563   19.8572 O   0  0  0  0  0  0  0  0  0  0  0  0
   10.2425  -18.2496   14.9707 C   0  0  0  0  0  0  0  0  0  0  0  0
   10.0878  -19.1202   13.9247 C   0  0  0  0  0  0  0  0  0  0  0  0
    7.6765  -12.4041   17.3110 O   0  0  0  0  0  0  0  0  0  0  0  0
    7.8191  -13.1580   18.4618 C   0  0  0  0  0  0  0  0  0  0  0  0
    6.8840  -13.0299   19.4722 C   0  0  0  0  0  0  0  0  0  0  0  0
    7.0474  -13.7973   20.6193 C   0  0  0  0  0  0  0  0  0  0  0  0
    8.0960  -14.6714   20.7839 C   0  0  0  0  0  0  0  0  0  0  0  0
    8.2669  -15.4868   22.0090 C   0  0  0  0  0  0  0  0  0  0  0  0
    9.4213  -16.4536   21.8611 C   0  0  2  0  0  0  0  0  0  0  0  0
    9.2590  -17.3476   20.7525 N   0  0  0  0  0  0  0  0  0  0  0  0
    9.5414  -17.1986   23.1586 C   0  0  0  0  0  0  0  0  0  0  0  0
    8.6922  -18.0691   23.4835 O   0  0  0  0  0  0  0  0  0  0  0  0
    9.0186  -14.7732   19.7432 C   0  0  0  0  0  0  0  0  0  0  0  0
    8.8753  -14.0268   18.6069 C   0  0  0  0  0  0  0  0  0  0  0  0
   10.6012  -16.9588   24.0631 N   0  0  0  0  0  0  0  0  0  0  0  0
   10.4938  -16.1429   25.2577 C   0  0  1  0  0  0  0  0  0  0  0  0
    9.2544  -15.2739   25.0670 C   0  0  0  0  0  0  0  0  0  0  0  0
    9.0175  -14.3891   26.2087 C   0  0  0  0  0  0  0  0  0  0  0  0
    9.5233  -14.5138   27.4771 C   0  0  0  0  0  0  0  0  0  0  0  0
    9.0630  -13.4937   28.2234 N   0  0  0  0  0  0  0  0  0  0  0  0
    8.2651  -12.6945   27.4853 C   0  0  0  0  0  0  0  0  0  0  0  0
    7.5499  -11.5539   27.7132 C   0  0  0  0  0  0  0  0  0  0  0  0
    6.8190  -10.9817   26.7015 C   0  0  0  0  0  0  0  0  0  0  0  0
    6.7780  -11.5267   25.4349 C   0  0  0  0  0  0  0  0  0  0  0  0
    7.4937  -12.6746   25.1936 C   0  0  0  0  0  0  0  0  0  0  0  0
    8.2360  -13.2584   26.2153 C   0  0  0  0  0  0  0  0  0  0  0  0
   10.4304  -16.9326   26.4834 C   0  0  0  0  0  0  0  0  0  0  0  0
   10.4078  -16.3770   27.6001 O   0  0  0  0  0  0  0  0  0  0  0  0
   10.3943  -18.3095   26.4232 O   0  0  0  0  0  0  0  0  0  0  0  0
  2 12  2  0
  2  1  1  0
  3  2  1  0
  4  5  1  0
  4  3  2  0
  5 11  2  0
  6  5  1  0
  6  7  1  0
  7  9  1  0
  7  8  1  6
  9 10  2  0
 11 12  1  0
 13 14  1  0
 14 15  2  0
 15 16  1  0
 17 18  1  0
 17 16  2  0
 19 18  1  1
 19 21  1  0
 20 19  1  0
 20  9  1  0
 21 22  2  0
 21 25  1  0
 23 17  1  0
 24 14  1  0
 24 23  2  0
 25 26  1  0
 26 27  1  6
 27 28  1  0
 28 29  2  0
 30 29  1  0
 31 30  1  0
 32 31  2  0
 33 32  1  0
 34 33  2  0
 34 35  1  0
 35 36  2  0
 36 31  1  0
 36 28  1  0
 37 26  1  0
 37 39  1  0
 38 37  2  0
M  END
$$$$
