YYW.pdb
     RDKit          3D

 39 42  0  0  1  0  0  0  0  0999 V2000
    8.4605  -12.0521   17.0084 O   0  0  0  0  0  0  0  0  0  0  0  0
    8.1968  -12.7718   18.1653 C   0  0  0  0  0  0  0  0  0  0  0  0
    9.2436  -13.0356   19.0404 C   0  0  0  0  0  0  0  0  0  0  0  0
    8.9996  -13.7466   20.1901 C   0  0  0  0  0  0  0  0  0  0  0  0
    7.7035  -14.1807   20.4396 C   0  0  0  0  0  0  0  0  0  0  0  0
    7.4164  -14.9440   21.6628 C   0  0  0  0  0  0  0  0  0  0  0  0
    7.5078  -16.4247   21.3577 C   0  0  2  0  0  0  0  0  0  0  0  0
    6.2475  -16.9415   20.8643 N   0  0  0  0  0  0  0  0  0  0  0  0
    7.9050  -17.1030   22.6160 C   0  0  0  0  0  0  0  0  0  0  0  0
    7.0625  -17.4468   23.4786 O   0  0  0  0  0  0  0  0  0  0  0  0
    6.6688  -13.9125   19.5616 C   0  0  0  0  0  0  0  0  0  0  0  0
    6.9259  -13.2025   18.4188 C   0  0  0  0  0  0  0  0  0  0  0  0
   12.0945  -22.0277   28.3493 O   0  0  0  0  0  0  0  0  0  0  0  0
   11.8002  -21.2825   27.2218 C   0  0  0  0  0  0  0  0  0  0  0  0
   12.6536  -20.2615   26.8464 C   0  0  0  0  0  0  0  0  0  0  0  0
   12.3378  -19.5261   25.7102 C   0  0  0  0  0  0  0  0  0  0  0  0
   11.2176  -19.7752   24.9529 C   0  0  0  0  0  0  0  0  0  0  0  0
   10.8843  -18.9880   23.7429 C   0  0  0  0  0  0  0  0  0  0  0  0
    9.7500  -18.0249   24.0170 C   0  0  2  0  0  0  0  0  0  0  0  0
    9.2848  -17.3630   22.8338 N   0  0  0  0  0  0  0  0  0  0  0  0
   10.2419  -17.0444   25.0415 C   0  0  0  0  0  0  0  0  0  0  0  0
   11.1633  -16.2322   24.7666 O   0  0  0  0  0  0  0  0  0  0  0  0
   10.3810  -20.8129   25.3630 C   0  0  0  0  0  0  0  0  0  0  0  0
   10.6743  -21.5478   26.4778 C   0  0  0  0  0  0  0  0  0  0  0  0
    9.6987  -16.9900   26.3456 N   0  0  0  0  0  0  0  0  0  0  0  0
   10.1499  -16.0869   27.3873 C   0  0  1  0  0  0  0  0  0  0  0  0
    8.8908  -15.5880   28.0897 C   0  0  0  0  0  0  0  0  0  0  0  0
    7.9161  -15.0315   27.1501 C   0  0  0  0  0  0  0  0  0  0  0  0
    6.9634  -15.7138   26.4380 C   0  0  0  0  0  0  0  0  0  0  0  0
    6.2737  -14.8321   25.6922 N   0  0  0  0  0  0  0  0  0  0  0  0
    6.7423  -13.5824   25.8893 C   0  0  0  0  0  0  0  0  0  0  0  0
    6.4337  -12.3402   25.4138 C   0  0  0  0  0  0  0  0  0  0  0  0
    7.1376  -11.2414   25.8404 C   0  0  0  0  0  0  0  0  0  0  0  0
    8.1680  -11.3457   26.7516 C   0  0  0  0  0  0  0  0  0  0  0  0
    8.4878  -12.5907   27.2372 C   0  0  0  0  0  0  0  0  0  0  0  0
    7.7775  -13.7074   26.8081 C   0  0  0  0  0  0  0  0  0  0  0  0
   11.0886  -16.7103   28.3147 C   0  0  0  0  0  0  0  0  0  0  0  0
   11.6501  -16.0377   29.2028 O   0  0  0  0  0  0  0  0  0  0  0  0
   11.3686  -18.0570   28.2215 O   0  0  0  0  0  0  0  0  0  0  0  0
  2 12  2  0
  2  1  1  0
  3  2  1  0
  4  5  1  0
  4  3  2  0
  5 11  2  0
  6  5  1  0
  6  7  1  0
  7  9  1  0
  7  8  1  1
  9 10  2  0
 11 12  1  0
 13 14  1  0
 14 15  2  0
 15 16  1  0
 17 18  1  0
 17 16  2  0
 19 18  1  6
 19 21  1  0
 20 19  1  0
 20  9  1  0
 21 22  2  0
 21 25  1  0
 23 17  1  0
 24 14  1  0
 24 23  2  0
 25 26  1  0
 26 27  1  1
 27 28  1  0
 28 29  2  0
 30 29  1  0
 31 30  1  0
 32 31  2  0
 33 32  1  0
 34 33  2  0
 34 35  1  0
 35 36  2  0
 36 31  1  0
 36 28  1  0
 37 26  1  0
 37 39  1  0
 38 37  2  0
M  END
$$$$
