YYW.pdb
     RDKit          3D

 39 42  0  0  1  0  0  0  0  0999 V2000
    8.3794  -13.0860   16.7570 O   0  0  0  0  0  0  0  0  0  0  0  0
    8.5972  -13.7608   17.9499 C   0  0  0  0  0  0  0  0  0  0  0  0
    9.5510  -13.2668   18.8317 C   0  0  0  0  0  0  0  0  0  0  0  0
    9.7788  -13.9228   20.0169 C   0  0  0  0  0  0  0  0  0  0  0  0
    9.0412  -15.0671   20.2946 C   0  0  0  0  0  0  0  0  0  0  0  0
    9.2665  -15.7877   21.5560 C   0  0  0  0  0  0  0  0  0  0  0  0
   10.7528  -16.0125   21.7414 C   0  0  2  0  0  0  0  0  0  0  0  0
   11.2824  -16.9052   20.7308 N   0  0  0  0  0  0  0  0  0  0  0  0
   10.9397  -16.5769   23.1007 C   0  0  0  0  0  0  0  0  0  0  0  0
   11.1346  -17.8010   23.2895 O   0  0  0  0  0  0  0  0  0  0  0  0
    8.0941  -15.5502   19.4096 C   0  0  0  0  0  0  0  0  0  0  0  0
    7.8769  -14.8864   18.2314 C   0  0  0  0  0  0  0  0  0  0  0  0
   12.5027  -16.1098   31.4262 O   0  0  0  0  0  0  0  0  0  0  0  0
   11.9297  -15.8176   30.2016 C   0  0  0  0  0  0  0  0  0  0  0  0
   11.9200  -14.5086   29.7567 C   0  0  0  0  0  0  0  0  0  0  0  0
   11.3389  -14.2385   28.5234 C   0  0  0  0  0  0  0  0  0  0  0  0
   10.7785  -15.2174   27.7372 C   0  0  0  0  0  0  0  0  0  0  0  0
   10.1591  -14.9248   26.4235 C   0  0  0  0  0  0  0  0  0  0  0  0
   10.3356  -16.0857   25.4693 C   0  0  2  0  0  0  0  0  0  0  0  0
   10.8938  -15.6900   24.2099 N   0  0  0  0  0  0  0  0  0  0  0  0
    8.9886  -16.7260   25.3000 C   0  0  0  0  0  0  0  0  0  0  0  0
    8.4480  -17.3514   26.2492 O   0  0  0  0  0  0  0  0  0  0  0  0
   10.8074  -16.5256   28.2196 C   0  0  0  0  0  0  0  0  0  0  0  0
   11.3743  -16.8115   29.4301 C   0  0  0  0  0  0  0  0  0  0  0  0
    8.2755  -16.6563   24.0813 N   0  0  0  0  0  0  0  0  0  0  0  0
    6.9498  -17.2065   23.8717 C   0  0  1  0  0  0  0  0  0  0  0  0
    6.1914  -16.1778   23.0384 C   0  0  0  0  0  0  0  0  0  0  0  0
    6.6260  -14.8086   23.3192 C   0  0  0  0  0  0  0  0  0  0  0  0
    7.3013  -13.9611   22.4789 C   0  0  0  0  0  0  0  0  0  0  0  0
    7.5081  -12.7973   23.1209 N   0  0  0  0  0  0  0  0  0  0  0  0
    6.9886  -12.8484   24.3649 C   0  0  0  0  0  0  0  0  0  0  0  0
    6.9073  -11.9886   25.4226 C   0  0  0  0  0  0  0  0  0  0  0  0
    6.2864  -12.3770   26.5839 C   0  0  0  0  0  0  0  0  0  0  0  0
    5.7287  -13.6305   26.7272 C   0  0  0  0  0  0  0  0  0  0  0  0
    5.8044  -14.5046   25.6695 C   0  0  0  0  0  0  0  0  0  0  0  0
    6.4325  -14.1159   24.4906 C   0  0  0  0  0  0  0  0  0  0  0  0
    6.9719  -18.5212   23.2385 C   0  0  0  0  0  0  0  0  0  0  0  0
    5.9165  -19.1629   23.0633 O   0  0  0  0  0  0  0  0  0  0  0  0
    8.1647  -19.0740   22.8236 O   0  0  0  0  0  0  0  0  0  0  0  0
  2 12  2  0
  2  1  1  0
  3  2  1  0
  4  5  1  0
  4  3  2  0
  5 11  2  0
  6  5  1  0
  6  7  1  0
  7  9  1  0
  7  8  1  6
  9 10  2  0
 11 12  1  0
 13 14  1  0
 14 15  2  0
 15 16  1  0
 17 18  1  0
 17 16  2  0
 19 18  1  1
 19 21  1  0
 20 19  1  0
 20  9  1  0
 21 22  2  0
 21 25  1  0
 23 17  1  0
 24 14  1  0
 24 23  2  0
 25 26  1  0
 26 27  1  6
 27 28  1  0
 28 29  2  0
 30 29  1  0
 31 30  1  0
 32 31  2  0
 33 32  1  0
 34 33  2  0
 34 35  1  0
 35 36  2  0
 36 31  1  0
 36 28  1  0
 37 26  1  0
 37 39  1  0
 38 37  2  0
M  END
$$$$
