YYW.pdb
     RDKit          3D

 39 42  0  0  1  0  0  0  0  0999 V2000
   12.1717  -12.6890   19.3874 O   0  0  0  0  0  0  0  0  0  0  0  0
   10.9398  -13.3223   19.3027 C   0  0  0  0  0  0  0  0  0  0  0  0
    9.7950  -12.5427   19.1879 C   0  0  0  0  0  0  0  0  0  0  0  0
    8.5677  -13.1538   19.1029 C   0  0  0  0  0  0  0  0  0  0  0  0
    8.5137  -14.5419   19.1350 C   0  0  0  0  0  0  0  0  0  0  0  0
    7.2124  -15.2199   19.0463 C   0  0  0  0  0  0  0  0  0  0  0  0
    7.4372  -16.7119   18.9138 C   0  0  2  0  0  0  0  0  0  0  0  0
    6.3042  -17.3636   18.2889 N   0  0  0  0  0  0  0  0  0  0  0  0
    7.6666  -17.2389   20.2814 C   0  0  0  0  0  0  0  0  0  0  0  0
    6.7179  -17.5466   21.0414 O   0  0  0  0  0  0  0  0  0  0  0  0
    9.6596  -15.3082   19.2496 C   0  0  0  0  0  0  0  0  0  0  0  0
   10.8770  -14.6862   19.3335 C   0  0  0  0  0  0  0  0  0  0  0  0
    6.9207  -23.1020   19.0508 O   0  0  0  0  0  0  0  0  0  0  0  0
    7.6872  -22.1759   19.7349 C   0  0  0  0  0  0  0  0  0  0  0  0
    7.5120  -22.0309   21.0987 C   0  0  0  0  0  0  0  0  0  0  0  0
    8.2931  -21.0943   21.7651 C   0  0  0  0  0  0  0  0  0  0  0  0
    9.2252  -20.3138   21.1228 C   0  0  0  0  0  0  0  0  0  0  0  0
   10.0550  -19.3158   21.8370 C   0  0  0  0  0  0  0  0  0  0  0  0
    9.3172  -18.0033   21.9867 C   0  0  2  0  0  0  0  0  0  0  0  0
    9.0069  -17.3935   20.7272 N   0  0  0  0  0  0  0  0  0  0  0  0
   10.1736  -17.1105   22.8367 C   0  0  0  0  0  0  0  0  0  0  0  0
   11.3495  -16.8248   22.4906 O   0  0  0  0  0  0  0  0  0  0  0  0
    9.3732  -20.4887   19.7472 C   0  0  0  0  0  0  0  0  0  0  0  0
    8.6144  -21.4048   19.0737 C   0  0  0  0  0  0  0  0  0  0  0  0
    9.7032  -16.5572   24.0497 N   0  0  0  0  0  0  0  0  0  0  0  0
   10.5486  -16.2009   25.1733 C   0  0  1  0  0  0  0  0  0  0  0  0
   10.1199  -14.7997   25.5981 C   0  0  0  0  0  0  0  0  0  0  0  0
    8.6779  -14.7088   25.8320 C   0  0  0  0  0  0  0  0  0  0  0  0
    7.7617  -15.7281   25.7867 C   0  0  0  0  0  0  0  0  0  0  0  0
    6.5458  -15.2229   26.0619 N   0  0  0  0  0  0  0  0  0  0  0  0
    6.6291  -13.8956   26.2889 C   0  0  0  0  0  0  0  0  0  0  0  0
    5.7446  -12.9035   26.6019 C   0  0  0  0  0  0  0  0  0  0  0  0
    6.1827  -11.6131   26.7686 C   0  0  0  0  0  0  0  0  0  0  0  0
    7.5120  -11.2718   26.6290 C   0  0  0  0  0  0  0  0  0  0  0  0
    8.4116  -12.2617   26.3140 C   0  0  0  0  0  0  0  0  0  0  0  0
    7.9727  -13.5710   26.1440 C   0  0  0  0  0  0  0  0  0  0  0  0
   10.4699  -17.1585   26.2719 C   0  0  0  0  0  0  0  0  0  0  0  0
   10.7883  -18.3527   26.1016 O   0  0  0  0  0  0  0  0  0  0  0  0
   10.0409  -16.7543   27.5182 O   0  0  0  0  0  0  0  0  0  0  0  0
  2 12  2  0
  2  1  1  0
  3  2  1  0
  4  5  1  0
  4  3  2  0
  5 11  2  0
  6  5  1  0
  6  7  1  0
  7  9  1  0
  7  8  1  1
  9 10  2  0
 11 12  1  0
 13 14  1  0
 14 15  2  0
 15 16  1  0
 17 18  1  0
 17 16  2  0
 19 18  1  6
 19 21  1  0
 20 19  1  0
 20  9  1  0
 21 22  2  0
 21 25  1  0
 23 17  1  0
 24 14  1  0
 24 23  2  0
 25 26  1  0
 26 27  1  1
 27 28  1  0
 28 29  2  0
 30 29  1  0
 31 30  1  0
 32 31  2  0
 33 32  1  0
 34 33  2  0
 34 35  1  0
 35 36  2  0
 36 31  1  0
 36 28  1  0
 37 26  1  0
 37 39  1  0
 38 37  2  0
M  END
$$$$
