YYW.pdb
     RDKit          3D

 39 42  0  0  1  0  0  0  0  0999 V2000
    6.6427  -23.8263   26.1690 O   0  0  0  0  0  0  0  0  0  0  0  0
    6.4841  -22.5666   25.6087 C   0  0  0  0  0  0  0  0  0  0  0  0
    6.7074  -22.4092   24.2461 C   0  0  0  0  0  0  0  0  0  0  0  0
    6.5546  -21.1689   23.6758 C   0  0  0  0  0  0  0  0  0  0  0  0
    6.1791  -20.1063   24.4885 C   0  0  0  0  0  0  0  0  0  0  0  0
    6.0095  -18.7688   23.9024 C   0  0  0  0  0  0  0  0  0  0  0  0
    6.1801  -18.8590   22.4002 C   0  0  2  0  0  0  0  0  0  0  0  0
    6.2649  -20.2365   21.9597 N   0  0  0  0  0  0  0  0  0  0  0  0
    7.4168  -18.1140   22.0587 C   0  0  0  0  0  0  0  0  0  0  0  0
    8.4745  -18.7006   21.7282 O   0  0  0  0  0  0  0  0  0  0  0  0
    5.9593  -20.2742   25.8438 C   0  0  0  0  0  0  0  0  0  0  0  0
    6.1151  -21.5163   26.3998 C   0  0  0  0  0  0  0  0  0  0  0  0
    8.0304  -14.0604   15.7393 O   0  0  0  0  0  0  0  0  0  0  0  0
    8.0633  -14.1635   17.1182 C   0  0  0  0  0  0  0  0  0  0  0  0
    7.7284  -13.0628   17.8851 C   0  0  0  0  0  0  0  0  0  0  0  0
    7.7686  -13.1896   19.2685 C   0  0  0  0  0  0  0  0  0  0  0  0
    8.1260  -14.3595   19.8962 C   0  0  0  0  0  0  0  0  0  0  0  0
    8.1685  -14.4899   21.3713 C   0  0  0  0  0  0  0  0  0  0  0  0
    8.5305  -15.9005   21.7816 C   0  0  2  0  0  0  0  0  0  0  0  0
    7.3841  -16.6945   22.1128 N   0  0  0  0  0  0  0  0  0  0  0  0
    9.4810  -15.7930   22.9384 C   0  0  0  0  0  0  0  0  0  0  0  0
   10.6349  -15.3151   22.7825 O   0  0  0  0  0  0  0  0  0  0  0  0
    8.4571  -15.4477   19.0893 C   0  0  0  0  0  0  0  0  0  0  0  0
    8.4237  -15.3430   17.7267 C   0  0  0  0  0  0  0  0  0  0  0  0
    9.1269  -16.2189   24.2391 N   0  0  0  0  0  0  0  0  0  0  0  0
   10.0268  -16.2219   25.3768 C   0  0  1  0  0  0  0  0  0  0  0  0
    9.9390  -14.8276   25.9898 C   0  0  0  0  0  0  0  0  0  0  0  0
    8.5651  -14.3241   26.0262 C   0  0  0  0  0  0  0  0  0  0  0  0
    7.4088  -15.0522   25.9117 C   0  0  0  0  0  0  0  0  0  0  0  0
    6.3630  -14.2106   25.9980 N   0  0  0  0  0  0  0  0  0  0  0  0
    6.7930  -12.9431   26.1667 C   0  0  0  0  0  0  0  0  0  0  0  0
    6.1965  -11.7231   26.3096 C   0  0  0  0  0  0  0  0  0  0  0  0
    6.9607  -10.5935   26.4674 C   0  0  0  0  0  0  0  0  0  0  0  0
    8.3391  -10.6440   26.4876 C   0  0  0  0  0  0  0  0  0  0  0  0
    8.9507  -11.8662   26.3447 C   0  0  0  0  0  0  0  0  0  0  0  0
    8.1809  -13.0139   26.1845 C   0  0  0  0  0  0  0  0  0  0  0  0
    9.7186  -17.2701   26.3443 C   0  0  0  0  0  0  0  0  0  0  0  0
   10.4392  -17.4444   27.3477 O   0  0  0  0  0  0  0  0  0  0  0  0
    8.6220  -18.0855   26.1617 O   0  0  0  0  0  0  0  0  0  0  0  0
  2 12  2  0
  2  1  1  0
  3  2  1  0
  4  5  1  0
  4  3  2  0
  5 11  2  0
  6  5  1  0
  6  7  1  0
  7  9  1  0
  7  8  1  1
  9 10  2  0
 11 12  1  0
 13 14  1  0
 14 15  2  0
 15 16  1  0
 17 18  1  0
 17 16  2  0
 19 18  1  1
 19 21  1  0
 20 19  1  0
 20  9  1  0
 21 22  2  0
 21 25  1  0
 23 17  1  0
 24 14  1  0
 24 23  2  0
 25 26  1  0
 26 27  1  1
 27 28  1  0
 28 29  2  0
 30 29  1  0
 31 30  1  0
 32 31  2  0
 33 32  1  0
 34 33  2  0
 34 35  1  0
 35 36  2  0
 36 31  1  0
 36 28  1  0
 37 26  1  0
 37 39  1  0
 38 37  2  0
M  END
$$$$
