YYW.pdb
     RDKit          3D

 39 42  0  0  1  0  0  0  0  0999 V2000
    8.5768  -11.8550   18.0279 O   0  0  0  0  0  0  0  0  0  0  0  0
    8.1872  -12.8004   18.9662 C   0  0  0  0  0  0  0  0  0  0  0  0
    8.8989  -12.8923   20.1563 C   0  0  0  0  0  0  0  0  0  0  0  0
    8.5262  -13.8226   21.0957 C   0  0  0  0  0  0  0  0  0  0  0  0
    7.4414  -14.6461   20.8205 C   0  0  0  0  0  0  0  0  0  0  0  0
    7.0229  -15.6502   21.8094 C   0  0  0  0  0  0  0  0  0  0  0  0
    7.5249  -17.0124   21.3777 C   0  0  2  0  0  0  0  0  0  0  0  0
    6.4361  -17.9584   21.2424 N   0  0  0  0  0  0  0  0  0  0  0  0
    8.4961  -17.4621   22.4050 C   0  0  0  0  0  0  0  0  0  0  0  0
    8.1834  -18.2844   23.2985 O   0  0  0  0  0  0  0  0  0  0  0  0
    6.7399  -14.5460   19.6325 C   0  0  0  0  0  0  0  0  0  0  0  0
    7.1220  -13.6140   18.7043 C   0  0  0  0  0  0  0  0  0  0  0  0
   12.4652  -20.6209   17.9898 O   0  0  0  0  0  0  0  0  0  0  0  0
   12.4046  -19.8209   19.1165 C   0  0  0  0  0  0  0  0  0  0  0  0
   12.0484  -18.4917   18.9816 C   0  0  0  0  0  0  0  0  0  0  0  0
   11.9942  -17.7069   20.1272 C   0  0  0  0  0  0  0  0  0  0  0  0
   12.2794  -18.2001   21.3785 C   0  0  0  0  0  0  0  0  0  0  0  0
   12.2214  -17.3596   22.5971 C   0  0  0  0  0  0  0  0  0  0  0  0
   10.8484  -17.4154   23.2304 C   0  0  2  0  0  0  0  0  0  0  0  0
    9.8152  -16.9357   22.3605 N   0  0  0  0  0  0  0  0  0  0  0  0
   10.9159  -16.6179   24.5003 C   0  0  0  0  0  0  0  0  0  0  0  0
   11.5119  -15.5099   24.5351 O   0  0  0  0  0  0  0  0  0  0  0  0
   12.6348  -19.5453   21.4746 C   0  0  0  0  0  0  0  0  0  0  0  0
   12.6938  -20.3337   20.3594 C   0  0  0  0  0  0  0  0  0  0  0  0
   10.3201  -17.0705   25.6999 N   0  0  0  0  0  0  0  0  0  0  0  0
   10.6603  -16.5813   27.0224 C   0  0  1  0  0  0  0  0  0  0  0  0
   10.1124  -15.1597   27.1020 C   0  0  0  0  0  0  0  0  0  0  0  0
    8.6899  -15.0947   26.7631 C   0  0  0  0  0  0  0  0  0  0  0  0
    7.8519  -16.1440   26.4856 C   0  0  0  0  0  0  0  0  0  0  0  0
    6.6260  -15.6551   26.2255 N   0  0  0  0  0  0  0  0  0  0  0  0
    6.6268  -14.3095   26.3226 C   0  0  0  0  0  0  0  0  0  0  0  0
    5.6968  -13.3214   26.1698 C   0  0  0  0  0  0  0  0  0  0  0  0
    6.0484  -12.0064   26.3492 C   0  0  0  0  0  0  0  0  0  0  0  0
    7.3339  -11.6360   26.6857 C   0  0  0  0  0  0  0  0  0  0  0  0
    8.2786  -12.6216   26.8422 C   0  0  0  0  0  0  0  0  0  0  0  0
    7.9274  -13.9556   26.6614 C   0  0  0  0  0  0  0  0  0  0  0  0
   10.1483  -17.4305   28.0933 C   0  0  0  0  0  0  0  0  0  0  0  0
    9.4653  -18.4419   27.8344 O   0  0  0  0  0  0  0  0  0  0  0  0
   10.4138  -17.1250   29.4111 O   0  0  0  0  0  0  0  0  0  0  0  0
  2 12  2  0
  2  1  1  0
  3  2  1  0
  4  5  1  0
  4  3  2  0
  5 11  2  0
  6  5  1  0
  6  7  1  0
  7  9  1  0
  7  8  1  1
  9 10  2  0
 11 12  1  0
 13 14  1  0
 14 15  2  0
 15 16  1  0
 17 18  1  0
 17 16  2  0
 19 18  1  6
 19 21  1  0
 20 19  1  0
 20  9  1  0
 21 22  2  0
 21 25  1  0
 23 17  1  0
 24 14  1  0
 24 23  2  0
 25 26  1  0
 26 27  1  1
 27 28  1  0
 28 29  2  0
 30 29  1  0
 31 30  1  0
 32 31  2  0
 33 32  1  0
 34 33  2  0
 34 35  1  0
 35 36  2  0
 36 31  1  0
 36 28  1  0
 37 26  1  0
 37 39  1  0
 38 37  2  0
M  END
$$$$
