VCE.pdb
     RDKit          3D

 23 22  0  0  1  0  0  0  0  0999 V2000
    8.6118  -17.3056   21.8931 C   0  0  0  0  0  0  0  0  0  0  0  0
    7.2410  -16.6951   21.7489 C   0  0  2  0  0  0  0  0  0  0  0  0
    6.5480  -17.2933   20.5386 C   0  0  0  0  0  0  0  0  0  0  0  0
    7.3233  -15.1890   21.5875 C   0  0  2  0  0  0  0  0  0  0  0  0
    8.1781  -14.9024   20.4516 N   0  0  0  0  0  0  0  0  0  0  0  0
    7.9424  -14.5837   22.7908 C   0  0  0  0  0  0  0  0  0  0  0  0
    9.1956  -14.3369   22.8312 O   0  0  0  0  0  0  0  0  0  0  0  0
    7.2025  -14.2530   23.9335 N   0  0  0  0  0  0  0  0  0  0  0  0
    7.8090  -13.6124   25.1166 C   0  0  1  0  0  0  0  0  0  0  0  0
    6.6347  -13.1135   25.9402 C   0  0  0  0  0  0  0  0  0  0  0  0
    7.1172  -12.4576   27.5465 S   0  0  0  0  0  0  0  0  0  0  0  0
    8.5179  -14.6569   25.8742 C   0  0  0  0  0  0  0  0  0  0  0  0
    7.8630  -15.6002   26.4014 O   0  0  0  0  0  0  0  0  0  0  0  0
    9.9247  -14.7108   26.0784 N   0  0  0  0  0  0  0  0  0  0  0  0
   10.5677  -15.6833   26.9407 C   0  0  1  0  0  0  0  0  0  0  0  0
   12.0150  -15.7817   26.5540 C   0  0  0  0  0  0  0  0  0  0  0  0
   12.2836  -16.1828   25.1517 C   0  0  0  0  0  0  0  0  0  0  0  0
   13.6944  -16.2052   24.7820 C   0  0  0  0  0  0  0  0  0  0  0  0
   14.6005  -15.8564   25.5713 O   0  0  0  0  0  0  0  0  0  0  0  0
   10.5170  -15.2252   28.3758 C   0  0  0  0  0  0  0  0  0  0  0  0
   10.8643  -15.9842   29.3125 O   0  0  0  0  0  0  0  0  0  0  0  0
   13.9990  -16.6421   23.4815 O   0  0  0  0  0  0  0  0  0  0  0  0
   10.0895  -13.9567   28.7356 O   0  0  0  0  0  0  0  0  0  0  0  0
  2  3  1  6
  2  1  1  0
  4  2  1  0
  4  5  1  6
  6  4  1  0
  7  6  2  0
  8  6  1  0
  9 12  1  0
  9  8  1  0
  9 10  1  1
 11 10  1  0
 12 14  1  0
 13 12  2  0
 14 15  1  0
 15 16  1  6
 15 20  1  0
 16 17  1  0
 17 18  1  0
 18 22  1  0
 19 18  2  0
 20 21  2  0
 20 23  1  0
M  END
$$$$
