VCE.pdb
     RDKit          3D

 23 22  0  0  1  0  0  0  0  0999 V2000
    7.3221  -14.3616   18.2963 C   0  0  0  0  0  0  0  0  0  0  0  0
    7.8477  -14.5140   19.7010 C   0  0  2  0  0  0  0  0  0  0  0  0
    7.0629  -15.5970   20.4178 C   0  0  0  0  0  0  0  0  0  0  0  0
    7.7337  -13.2146   20.4753 C   0  0  2  0  0  0  0  0  0  0  0  0
    8.5592  -12.2214   19.8155 N   0  0  0  0  0  0  0  0  0  0  0  0
    8.2511  -13.3983   21.8524 C   0  0  0  0  0  0  0  0  0  0  0  0
    9.4998  -13.5626   22.0684 O   0  0  0  0  0  0  0  0  0  0  0  0
    7.4157  -13.4024   22.9769 N   0  0  0  0  0  0  0  0  0  0  0  0
    7.9203  -13.6451   24.3424 C   0  0  1  0  0  0  0  0  0  0  0  0
    6.8263  -13.1344   25.2635 C   0  0  0  0  0  0  0  0  0  0  0  0
    7.0653  -13.6058   26.9851 S   0  0  0  0  0  0  0  0  0  0  0  0
    8.0535  -15.1010   24.5157 C   0  0  0  0  0  0  0  0  0  0  0  0
    7.0598  -15.8502   24.2964 O   0  0  0  0  0  0  0  0  0  0  0  0
    9.2392  -15.7743   24.9213 N   0  0  0  0  0  0  0  0  0  0  0  0
    9.3087  -17.2071   25.1334 C   0  0  1  0  0  0  0  0  0  0  0  0
   10.1198  -17.8152   24.0260 C   0  0  0  0  0  0  0  0  0  0  0  0
   11.4522  -17.2076   23.7919 C   0  0  0  0  0  0  0  0  0  0  0  0
   12.2081  -17.7971   22.6925 C   0  0  0  0  0  0  0  0  0  0  0  0
   12.6980  -18.9468   22.7555 O   0  0  0  0  0  0  0  0  0  0  0  0
   10.0182  -17.5110   26.4280 C   0  0  0  0  0  0  0  0  0  0  0  0
   10.1779  -18.6924   26.8193 O   0  0  0  0  0  0  0  0  0  0  0  0
   12.3659  -17.0076   21.5405 O   0  0  0  0  0  0  0  0  0  0  0  0
   10.5269  -16.5155   27.2474 O   0  0  0  0  0  0  0  0  0  0  0  0
  2  3  1  1
  2  1  1  0
  4  2  1  0
  4  5  1  6
  6  4  1  0
  7  6  2  0
  8  6  1  0
  9 12  1  0
  9  8  1  0
  9 10  1  1
 11 10  1  0
 12 14  1  0
 13 12  2  0
 14 15  1  0
 15 16  1  6
 15 20  1  0
 16 17  1  0
 17 18  1  0
 18 22  1  0
 19 18  2  0
 20 21  2  0
 20 23  1  0
M  END
$$$$
