VCE.pdb
     RDKit          3D

 23 22  0  0  1  0  0  0  0  0999 V2000
    9.3480  -20.1964   19.1134 C   0  0  0  0  0  0  0  0  0  0  0  0
    9.5613  -18.9799   19.9777 C   0  0  2  0  0  0  0  0  0  0  0  0
    9.5520  -19.3917   21.4383 C   0  0  0  0  0  0  0  0  0  0  0  0
    8.4818  -17.9407   19.7416 C   0  0  2  0  0  0  0  0  0  0  0  0
    8.4359  -17.6516   18.3212 N   0  0  0  0  0  0  0  0  0  0  0  0
    8.8224  -16.6857   20.4535 C   0  0  0  0  0  0  0  0  0  0  0  0
    9.7791  -15.9406   20.0504 O   0  0  0  0  0  0  0  0  0  0  0  0
    8.1272  -16.2514   21.5896 N   0  0  0  0  0  0  0  0  0  0  0  0
    8.4504  -14.9917   22.2872 C   0  0  1  0  0  0  0  0  0  0  0  0
    7.2058  -14.6549   23.0896 C   0  0  0  0  0  0  0  0  0  0  0  0
    7.4380  -13.2722   24.2199 S   0  0  0  0  0  0  0  0  0  0  0  0
    9.5597  -15.2683   23.2147 C   0  0  0  0  0  0  0  0  0  0  0  0
   10.1032  -14.3149   23.8412 O   0  0  0  0  0  0  0  0  0  0  0  0
   10.1009  -16.5555   23.4864 N   0  0  0  0  0  0  0  0  0  0  0  0
   11.1888  -16.7817   24.4181 C   0  0  1  0  0  0  0  0  0  0  0  0
   11.2165  -18.2396   24.7756 C   0  0  0  0  0  0  0  0  0  0  0  0
   11.2518  -18.5490   26.2256 C   0  0  0  0  0  0  0  0  0  0  0  0
   11.3119  -19.9707   26.5458 C   0  0  0  0  0  0  0  0  0  0  0  0
   11.3248  -20.8574   25.6629 O   0  0  0  0  0  0  0  0  0  0  0  0
   12.5097  -16.4536   23.7704 C   0  0  0  0  0  0  0  0  0  0  0  0
   13.5256  -16.1974   24.4607 O   0  0  0  0  0  0  0  0  0  0  0  0
   11.3555  -20.3092   27.9091 O   0  0  0  0  0  0  0  0  0  0  0  0
   12.6733  -16.4170   22.3945 O   0  0  0  0  0  0  0  0  0  0  0  0
  2  3  1  1
  2  1  1  0
  4  2  1  0
  4  5  1  6
  6  4  1  0
  7  6  2  0
  8  6  1  0
  9 12  1  0
  9  8  1  0
  9 10  1  1
 11 10  1  0
 12 14  1  0
 13 12  2  0
 14 15  1  0
 15 16  1  6
 15 20  1  0
 16 17  1  0
 17 18  1  0
 18 22  1  0
 19 18  2  0
 20 21  2  0
 20 23  1  0
M  END
$$$$
