VCE.pdb
     RDKit          3D

 23 22  0  0  1  0  0  0  0  0999 V2000
    7.3484  -15.9605   19.4077 C   0  0  0  0  0  0  0  0  0  0  0  0
    7.8898  -15.5519   20.7540 C   0  0  2  0  0  0  0  0  0  0  0  0
    7.5129  -16.5977   21.7870 C   0  0  0  0  0  0  0  0  0  0  0  0
    7.3423  -14.2032   21.1812 C   0  0  2  0  0  0  0  0  0  0  0  0
    7.7744  -13.2132   20.2136 N   0  0  0  0  0  0  0  0  0  0  0  0
    7.8991  -13.8258   22.5022 C   0  0  0  0  0  0  0  0  0  0  0  0
    9.1164  -13.4555   22.6206 O   0  0  0  0  0  0  0  0  0  0  0  0
    7.1364  -13.8529   23.6770 N   0  0  0  0  0  0  0  0  0  0  0  0
    7.6773  -13.4409   24.9868 C   0  0  1  0  0  0  0  0  0  0  0  0
    6.4631  -13.0417   25.8069 C   0  0  0  0  0  0  0  0  0  0  0  0
    6.8408  -12.7433   27.5423 S   0  0  0  0  0  0  0  0  0  0  0  0
    8.3046  -14.6225   25.6012 C   0  0  0  0  0  0  0  0  0  0  0  0
    7.6248  -15.6741   25.7707 O   0  0  0  0  0  0  0  0  0  0  0  0
    9.6558  -14.6999   26.0395 N   0  0  0  0  0  0  0  0  0  0  0  0
   10.2222  -15.8762   26.6706 C   0  0  1  0  0  0  0  0  0  0  0  0
   11.6393  -16.0349   26.2007 C   0  0  0  0  0  0  0  0  0  0  0  0
   11.8433  -16.9680   25.0661 C   0  0  0  0  0  0  0  0  0  0  0  0
   13.2082  -17.0182   24.5541 C   0  0  0  0  0  0  0  0  0  0  0  0
   14.1322  -16.3268   25.0378 O   0  0  0  0  0  0  0  0  0  0  0  0
   10.2631  -15.6993   28.1669 C   0  0  0  0  0  0  0  0  0  0  0  0
    9.9492  -14.6080   28.7007 O   0  0  0  0  0  0  0  0  0  0  0  0
   13.4465  -17.8894   23.4774 O   0  0  0  0  0  0  0  0  0  0  0  0
   10.6446  -16.7188   29.0250 O   0  0  0  0  0  0  0  0  0  0  0  0
  2  3  1  1
  2  1  1  0
  4  2  1  0
  4  5  1  6
  6  4  1  0
  7  6  2  0
  8  6  1  0
  9 12  1  0
  9  8  1  0
  9 10  1  1
 11 10  1  0
 12 14  1  0
 13 12  2  0
 14 15  1  0
 15 16  1  6
 15 20  1  0
 16 17  1  0
 17 18  1  0
 18 22  1  0
 19 18  2  0
 20 21  2  0
 20 23  1  0
M  END
$$$$
