VCE.pdb
     RDKit          3D

 23 22  0  0  1  0  0  0  0  0999 V2000
    8.2851  -17.4548   22.0983 C   0  0  0  0  0  0  0  0  0  0  0  0
    7.0899  -16.6098   21.7376 C   0  0  2  0  0  0  0  0  0  0  0  0
    6.4215  -17.1838   20.5021 C   0  0  0  0  0  0  0  0  0  0  0  0
    7.4931  -15.1723   21.4689 C   0  0  2  0  0  0  0  0  0  0  0  0
    8.5076  -15.1738   20.4326 N   0  0  0  0  0  0  0  0  0  0  0  0
    8.0863  -14.5758   22.6895 C   0  0  0  0  0  0  0  0  0  0  0  0
    9.3507  -14.5799   22.8749 O   0  0  0  0  0  0  0  0  0  0  0  0
    7.3088  -13.9836   23.6932 N   0  0  0  0  0  0  0  0  0  0  0  0
    7.8940  -13.4212   24.9256 C   0  0  1  0  0  0  0  0  0  0  0  0
    6.7620  -12.6525   25.5845 C   0  0  0  0  0  0  0  0  0  0  0  0
    7.1582  -12.0839   27.2467 S   0  0  0  0  0  0  0  0  0  0  0  0
    8.2769  -14.5486   25.7915 C   0  0  0  0  0  0  0  0  0  0  0  0
    7.4226  -15.4340   26.0794 O   0  0  0  0  0  0  0  0  0  0  0  0
    9.5667  -14.7473   26.3579 N   0  0  0  0  0  0  0  0  0  0  0  0
    9.8838  -15.8447   27.2512 C   0  0  1  0  0  0  0  0  0  0  0  0
   11.2067  -16.4257   26.8435 C   0  0  0  0  0  0  0  0  0  0  0  0
   11.2571  -17.0316   25.4907 C   0  0  0  0  0  0  0  0  0  0  0  0
   12.6009  -17.2235   24.9568 C   0  0  0  0  0  0  0  0  0  0  0  0
   13.6283  -16.8950   25.5913 O   0  0  0  0  0  0  0  0  0  0  0  0
   10.0307  -15.3433   28.6650 C   0  0  0  0  0  0  0  0  0  0  0  0
    9.9115  -14.1244   28.9376 O   0  0  0  0  0  0  0  0  0  0  0  0
   12.6957  -17.8020   23.6796 O   0  0  0  0  0  0  0  0  0  0  0  0
   10.3022  -16.1897   29.7286 O   0  0  0  0  0  0  0  0  0  0  0  0
  2  3  1  6
  2  1  1  0
  4  2  1  0
  4  5  1  6
  6  4  1  0
  7  6  2  0
  8  6  1  0
  9 12  1  0
  9  8  1  0
  9 10  1  1
 11 10  1  0
 12 14  1  0
 13 12  2  0
 14 15  1  0
 15 16  1  6
 15 20  1  0
 16 17  1  0
 17 18  1  0
 18 22  1  0
 19 18  2  0
 20 21  2  0
 20 23  1  0
M  END
$$$$
