VCE.pdb
     RDKit          3D

 23 22  0  0  1  0  0  0  0  0999 V2000
    8.7051  -17.3627   21.6521 C   0  0  0  0  0  0  0  0  0  0  0  0
    7.3243  -16.8039   21.4200 C   0  0  2  0  0  0  0  0  0  0  0  0
    6.7451  -17.4031   20.1518 C   0  0  0  0  0  0  0  0  0  0  0  0
    7.3563  -15.2926   21.2929 C   0  0  2  0  0  0  0  0  0  0  0  0
    8.2710  -14.9486   20.2214 N   0  0  0  0  0  0  0  0  0  0  0  0
    7.8710  -14.6897   22.5456 C   0  0  0  0  0  0  0  0  0  0  0  0
    9.1255  -14.5345   22.7329 O   0  0  0  0  0  0  0  0  0  0  0  0
    7.0266  -14.2624   23.5786 N   0  0  0  0  0  0  0  0  0  0  0  0
    7.5348  -13.6354   24.8140 C   0  0  1  0  0  0  0  0  0  0  0  0
    6.2938  -13.2534   25.6016 C   0  0  0  0  0  0  0  0  0  0  0  0
    6.6492  -12.7523   27.2945 S   0  0  0  0  0  0  0  0  0  0  0  0
    8.2803  -14.6623   25.5605 C   0  0  0  0  0  0  0  0  0  0  0  0
    7.7579  -15.7963   25.7552 O   0  0  0  0  0  0  0  0  0  0  0  0
    9.5841  -14.4966   26.1051 N   0  0  0  0  0  0  0  0  0  0  0  0
   10.2813  -15.5388   26.8335 C   0  0  1  0  0  0  0  0  0  0  0  0
   11.6869  -15.6267   26.3135 C   0  0  0  0  0  0  0  0  0  0  0  0
   12.5611  -16.6230   26.9788 C   0  0  0  0  0  0  0  0  0  0  0  0
   13.9364  -16.6501   26.4935 C   0  0  0  0  0  0  0  0  0  0  0  0
   14.2483  -16.2792   25.3398 O   0  0  0  0  0  0  0  0  0  0  0  0
   10.3655  -15.1883   28.2970 C   0  0  0  0  0  0  0  0  0  0  0  0
   10.8272  -16.0010   29.1340 O   0  0  0  0  0  0  0  0  0  0  0  0
   14.9127  -17.1174   27.3898 O   0  0  0  0  0  0  0  0  0  0  0  0
    9.9432  -13.9647   28.7929 O   0  0  0  0  0  0  0  0  0  0  0  0
  2  3  1  6
  2  1  1  0
  4  2  1  0
  4  5  1  6
  6  4  1  0
  7  6  2  0
  8  6  1  0
  9 12  1  0
  9  8  1  0
  9 10  1  1
 11 10  1  0
 12 14  1  0
 13 12  2  0
 14 15  1  0
 15 16  1  6
 15 20  1  0
 16 17  1  0
 17 18  1  0
 18 22  1  0
 19 18  2  0
 20 21  2  0
 20 23  1  0
M  END
$$$$
