VCE.pdb
     RDKit          3D

 23 22  0  0  1  0  0  0  0  0999 V2000
    6.9142  -14.4175   18.6931 C   0  0  0  0  0  0  0  0  0  0  0  0
    7.3874  -14.6292   20.1087 C   0  0  2  0  0  0  0  0  0  0  0  0
    6.5004  -15.6562   20.7880 C   0  0  0  0  0  0  0  0  0  0  0  0
    7.3546  -13.3351   20.8994 C   0  0  2  0  0  0  0  0  0  0  0  0
    8.1832  -12.3640   20.2112 N   0  0  0  0  0  0  0  0  0  0  0  0
    7.9281  -13.5515   22.2493 C   0  0  0  0  0  0  0  0  0  0  0  0
    9.1797  -13.7559   22.4063 O   0  0  0  0  0  0  0  0  0  0  0  0
    7.1447  -13.5446   23.4107 N   0  0  0  0  0  0  0  0  0  0  0  0
    7.7245  -13.6651   24.7625 C   0  0  1  0  0  0  0  0  0  0  0  0
    6.5679  -13.4065   25.7120 C   0  0  0  0  0  0  0  0  0  0  0  0
    6.3063  -11.6587   26.0586 S   0  0  0  0  0  0  0  0  0  0  0  0
    8.1812  -15.0547   24.9289 C   0  0  0  0  0  0  0  0  0  0  0  0
    7.4807  -16.0020   24.4720 O   0  0  0  0  0  0  0  0  0  0  0  0
    9.3828  -15.4515   25.5790 N   0  0  0  0  0  0  0  0  0  0  0  0
    9.9152  -16.7988   25.5154 C   0  0  1  0  0  0  0  0  0  0  0  0
   11.0873  -16.8056   24.5773 C   0  0  0  0  0  0  0  0  0  0  0  0
   11.8148  -18.0928   24.4611 C   0  0  0  0  0  0  0  0  0  0  0  0
   13.0094  -18.0463   23.6254 C   0  0  0  0  0  0  0  0  0  0  0  0
   13.7050  -17.0130   23.5060 O   0  0  0  0  0  0  0  0  0  0  0  0
   10.4217  -17.2262   26.8692 C   0  0  0  0  0  0  0  0  0  0  0  0
   10.5805  -16.3948   27.7954 O   0  0  0  0  0  0  0  0  0  0  0  0
   13.3525  -19.2294   22.9489 O   0  0  0  0  0  0  0  0  0  0  0  0
   10.7361  -18.5440   27.1623 O   0  0  0  0  0  0  0  0  0  0  0  0
  2  3  1  1
  2  1  1  0
  4  2  1  0
  4  5  1  6
  6  4  1  0
  7  6  2  0
  8  6  1  0
  9 12  1  0
  9  8  1  0
  9 10  1  1
 11 10  1  0
 12 14  1  0
 13 12  2  0
 14 15  1  0
 15 16  1  6
 15 20  1  0
 16 17  1  0
 17 18  1  0
 18 22  1  0
 19 18  2  0
 20 21  2  0
 20 23  1  0
M  END
$$$$
