VCE.pdb
     RDKit          3D

 23 22  0  0  1  0  0  0  0  0999 V2000
    7.1149  -14.7137   18.3428 C   0  0  0  0  0  0  0  0  0  0  0  0
    7.6865  -14.8528   19.7309 C   0  0  2  0  0  0  0  0  0  0  0  0
    6.9921  -15.9948   20.4495 C   0  0  0  0  0  0  0  0  0  0  0  0
    7.5101  -13.5751   20.5293 C   0  0  2  0  0  0  0  0  0  0  0  0
    8.0983  -12.4856   19.7742 N   0  0  0  0  0  0  0  0  0  0  0  0
    8.2324  -13.6803   21.8197 C   0  0  0  0  0  0  0  0  0  0  0  0
    9.5090  -13.6410   21.8630 O   0  0  0  0  0  0  0  0  0  0  0  0
    7.5690  -13.8262   23.0449 N   0  0  0  0  0  0  0  0  0  0  0  0
    8.2863  -13.9496   24.3286 C   0  0  1  0  0  0  0  0  0  0  0  0
    7.3001  -13.4698   25.3791 C   0  0  0  0  0  0  0  0  0  0  0  0
    5.7083  -14.3083   25.2992 S   0  0  0  0  0  0  0  0  0  0  0  0
    8.5643  -15.3787   24.5479 C   0  0  0  0  0  0  0  0  0  0  0  0
    8.0864  -16.2375   23.7537 O   0  0  0  0  0  0  0  0  0  0  0  0
    9.3507  -15.9086   25.6083 N   0  0  0  0  0  0  0  0  0  0  0  0
   10.3000  -16.9905   25.4320 C   0  0  1  0  0  0  0  0  0  0  0  0
   11.4713  -16.4753   24.6467 C   0  0  0  0  0  0  0  0  0  0  0  0
   12.5375  -17.4635   24.3529 C   0  0  0  0  0  0  0  0  0  0  0  0
   13.5614  -16.9995   23.4235 C   0  0  0  0  0  0  0  0  0  0  0  0
   13.8893  -17.6508   22.4065 O   0  0  0  0  0  0  0  0  0  0  0  0
   10.8236  -17.4507   26.7684 C   0  0  0  0  0  0  0  0  0  0  0  0
   11.5596  -18.4623   26.8643 O   0  0  0  0  0  0  0  0  0  0  0  0
   14.1746  -15.7707   23.7221 O   0  0  0  0  0  0  0  0  0  0  0  0
   10.5251  -16.7906   27.9502 O   0  0  0  0  0  0  0  0  0  0  0  0
  2  3  1  1
  2  1  1  0
  4  2  1  0
  4  5  1  6
  6  4  1  0
  7  6  2  0
  8  6  1  0
  9 12  1  0
  9  8  1  0
  9 10  1  1
 11 10  1  0
 12 14  1  0
 13 12  2  0
 14 15  1  0
 15 16  1  6
 15 20  1  0
 16 17  1  0
 17 18  1  0
 18 22  1  0
 19 18  2  0
 20 21  2  0
 20 23  1  0
M  END
$$$$
