CFE.pdb
     RDKit          3D

 27 27  0  0  1  0  0  0  0  0999 V2000
   28.4418  -23.2166  -17.4286 N   0  0  0  0  0  0  0  0  0  0  0  0
   27.9739  -21.9177  -17.0111 C   0  0  1  0  0  0  0  0  0  0  0  0
   27.2515  -21.2440  -18.1522 C   0  0  0  0  0  0  0  0  0  0  0  0
   28.5010  -20.7242  -19.3630 S   0  0  0  0  0  0  0  0  0  0  0  0
   27.1626  -22.0239  -15.7943 C   0  0  0  0  0  0  0  0  0  0  0  0
   26.4662  -23.0500  -15.6065 O   0  0  0  0  0  0  0  0  0  0  0  0
   27.1027  -21.0245  -14.7811 N   0  0  0  0  0  0  0  0  0  0  0  0
   26.2397  -21.0967  -13.6390 C   0  0  1  0  0  0  0  0  0  0  0  0
   26.6243  -20.1396  -12.5386 C   0  0  0  0  0  0  0  0  0  0  0  0
   25.8292  -20.3126  -11.3119 C   0  0  0  0  0  0  0  0  0  0  0  0
   24.5945  -19.7195  -11.1656 C   0  0  0  0  0  0  0  0  0  0  0  0
   23.8401  -19.8859  -10.0073 C   0  0  0  0  0  0  0  0  0  0  0  0
   24.3191  -20.6558   -8.9728 C   0  0  0  0  0  0  0  0  0  0  0  0
   25.5504  -21.2549   -9.1036 C   0  0  0  0  0  0  0  0  0  0  0  0
   26.2760  -21.0753  -10.2570 C   0  0  0  0  0  0  0  0  0  0  0  0
   24.8136  -20.8785  -13.9624 C   0  0  0  0  0  0  0  0  0  0  0  0
   24.5171  -19.8713  -14.6456 O   0  0  0  0  0  0  0  0  0  0  0  0
   23.7539  -21.7192  -13.5611 N   0  0  0  0  0  0  0  0  0  0  0  0
   22.3359  -21.4407  -13.8287 C   0  0  1  0  0  0  0  0  0  0  0  0
   21.7920  -22.6582  -14.4826 C   0  0  0  0  0  0  0  0  0  0  0  0
   20.3650  -22.6889  -14.8489 C   0  0  0  0  0  0  0  0  0  0  0  0
   19.9781  -21.8167  -15.9404 C   0  0  0  0  0  0  0  0  0  0  0  0
   20.6430  -21.6370  -16.9543 O   0  0  0  0  0  0  0  0  0  0  0  0
   21.6176  -20.8171  -12.7491 C   0  0  0  0  0  0  0  0  0  0  0  0
   21.8925  -21.0667  -11.5476 O   0  0  0  0  0  0  0  0  0  0  0  0
   18.7349  -21.1130  -15.8357 O   0  0  0  0  0  0  0  0  0  0  0  0
   20.5934  -19.9076  -12.9906 O   0  0  0  0  0  0  0  0  0  0  0  0
  2  1  1  6
  2  3  1  0
  3  4  1  0
  5  6  2  0
  5  2  1  0
  7  5  1  0
  8  7  1  0
  8  9  1  1
  9 10  1  0
 10 11  2  0
 10 15  1  0
 11 12  1  0
 12 13  2  0
 14 13  1  0
 15 14  2  0
 16 17  2  0
 16  8  1  0
 18 16  1  0
 19 18  1  0
 19 20  1  1
 21 20  1  0
 22 21  1  0
 23 22  2  0
 24 19  1  0
 25 24  2  0
 26 22  1  0
 27 24  1  0
M  END
$$$$
