CFE.pdb
     RDKit          3D

 27 27  0  0  1  0  0  0  0  0999 V2000
   28.5180  -22.5540  -17.7392 N   0  0  0  0  0  0  0  0  0  0  0  0
   27.9619  -21.3572  -17.1571 C   0  0  1  0  0  0  0  0  0  0  0  0
   27.1546  -20.6131  -18.1927 C   0  0  0  0  0  0  0  0  0  0  0  0
   28.3166  -19.6717  -19.2227 S   0  0  0  0  0  0  0  0  0  0  0  0
   27.1984  -21.6747  -15.9461 C   0  0  0  0  0  0  0  0  0  0  0  0
   26.4799  -22.7024  -15.9232 O   0  0  0  0  0  0  0  0  0  0  0  0
   27.2101  -20.8844  -14.7611 N   0  0  0  0  0  0  0  0  0  0  0  0
   26.3242  -21.0932  -13.6539 C   0  0  1  0  0  0  0  0  0  0  0  0
   26.6751  -20.2639  -12.4438 C   0  0  0  0  0  0  0  0  0  0  0  0
   25.8216  -20.5448  -11.2778 C   0  0  0  0  0  0  0  0  0  0  0  0
   24.6359  -19.8733  -11.0761 C   0  0  0  0  0  0  0  0  0  0  0  0
   23.8261  -20.1411   -9.9757 C   0  0  0  0  0  0  0  0  0  0  0  0
   24.1991  -21.0940   -9.0563 C   0  0  0  0  0  0  0  0  0  0  0  0
   25.3802  -21.7735   -9.2437 C   0  0  0  0  0  0  0  0  0  0  0  0
   26.1622  -21.4908  -10.3381 C   0  0  0  0  0  0  0  0  0  0  0  0
   24.9029  -20.8521  -13.9818 C   0  0  0  0  0  0  0  0  0  0  0  0
   24.6030  -19.7563  -14.5093 O   0  0  0  0  0  0  0  0  0  0  0  0
   23.8513  -21.7632  -13.7472 N   0  0  0  0  0  0  0  0  0  0  0  0
   22.4348  -21.4690  -14.0052 C   0  0  1  0  0  0  0  0  0  0  0  0
   22.2234  -21.6965  -15.4576 C   0  0  0  0  0  0  0  0  0  0  0  0
   20.8647  -21.5483  -16.0082 C   0  0  0  0  0  0  0  0  0  0  0  0
   20.4866  -20.2026  -16.3932 C   0  0  0  0  0  0  0  0  0  0  0  0
   19.5825  -19.5599  -15.8720 O   0  0  0  0  0  0  0  0  0  0  0  0
   21.5097  -22.0115  -13.0459 C   0  0  0  0  0  0  0  0  0  0  0  0
   21.7088  -23.1271  -12.5006 O   0  0  0  0  0  0  0  0  0  0  0  0
   21.2144  -19.5730  -17.4541 O   0  0  0  0  0  0  0  0  0  0  0  0
   20.3599  -21.3208  -12.6777 O   0  0  0  0  0  0  0  0  0  0  0  0
  2  1  1  6
  2  3  1  0
  3  4  1  0
  5  6  2  0
  5  2  1  0
  7  5  1  0
  8  7  1  0
  8  9  1  1
  9 10  1  0
 10 11  2  0
 10 15  1  0
 11 12  1  0
 12 13  2  0
 14 13  1  0
 15 14  2  0
 16 17  2  0
 16  8  1  0
 18 16  1  0
 19 18  1  0
 19 20  1  6
 21 20  1  0
 22 21  1  0
 23 22  2  0
 24 19  1  0
 25 24  2  0
 26 22  1  0
 27 24  1  0
M  END
$$$$
