CFE.pdb
     RDKit          3D

 27 27  0  0  1  0  0  0  0  0999 V2000
   28.5641  -23.0433  -17.4638 N   0  0  0  0  0  0  0  0  0  0  0  0
   28.0438  -21.7710  -17.0268 C   0  0  1  0  0  0  0  0  0  0  0  0
   27.1597  -21.1848  -18.1004 C   0  0  0  0  0  0  0  0  0  0  0  0
   28.2341  -20.6349  -19.4571 S   0  0  0  0  0  0  0  0  0  0  0  0
   27.3711  -21.9022  -15.7305 C   0  0  0  0  0  0  0  0  0  0  0  0
   26.6709  -22.9170  -15.5002 O   0  0  0  0  0  0  0  0  0  0  0  0
   27.4536  -20.9398  -14.6836 N   0  0  0  0  0  0  0  0  0  0  0  0
   26.6872  -21.0083  -13.4744 C   0  0  1  0  0  0  0  0  0  0  0  0
   27.1823  -20.0728  -12.3999 C   0  0  0  0  0  0  0  0  0  0  0  0
   26.4500  -20.2050  -11.1298 C   0  0  0  0  0  0  0  0  0  0  0  0
   26.8670  -21.0749  -10.1465 C   0  0  0  0  0  0  0  0  0  0  0  0
   26.1772  -21.1977   -8.9433 C   0  0  0  0  0  0  0  0  0  0  0  0
   25.0509  -20.4430   -8.7100 C   0  0  0  0  0  0  0  0  0  0  0  0
   24.6218  -19.5696   -9.6820 C   0  0  0  0  0  0  0  0  0  0  0  0
   25.3201  -19.4666  -10.8614 C   0  0  0  0  0  0  0  0  0  0  0  0
   25.2442  -20.7572  -13.6755 C   0  0  0  0  0  0  0  0  0  0  0  0
   24.9125  -19.7188  -14.2924 O   0  0  0  0  0  0  0  0  0  0  0  0
   24.2048  -21.5989  -13.2257 N   0  0  0  0  0  0  0  0  0  0  0  0
   22.7757  -21.3186  -13.4224 C   0  0  1  0  0  0  0  0  0  0  0  0
   22.3033  -22.2818  -14.4496 C   0  0  0  0  0  0  0  0  0  0  0  0
   20.8850  -22.2544  -14.8483 C   0  0  0  0  0  0  0  0  0  0  0  0
   20.4883  -23.2484  -15.8262 C   0  0  0  0  0  0  0  0  0  0  0  0
   21.2463  -24.0727  -16.3245 O   0  0  0  0  0  0  0  0  0  0  0  0
   22.0172  -21.1173  -12.2164 C   0  0  0  0  0  0  0  0  0  0  0  0
   20.8311  -20.7006  -12.2491 O   0  0  0  0  0  0  0  0  0  0  0  0
   19.1187  -23.2770  -16.2443 O   0  0  0  0  0  0  0  0  0  0  0  0
   22.5633  -21.3813  -10.9647 O   0  0  0  0  0  0  0  0  0  0  0  0
  2  1  1  6
  2  3  1  0
  3  4  1  0
  5  6  2  0
  5  2  1  0
  7  5  1  0
  8  7  1  0
  8  9  1  1
  9 10  1  0
 10 11  2  0
 10 15  1  0
 11 12  1  0
 12 13  2  0
 14 13  1  0
 15 14  2  0
 16 17  2  0
 16  8  1  0
 18 16  1  0
 19 18  1  0
 19 20  1  1
 21 20  1  0
 22 21  1  0
 23 22  2  0
 24 19  1  0
 25 24  2  0
 26 22  1  0
 27 24  1  0
M  END
$$$$
