RIG.pdb
     RDKit          3D

 24 23  0  0  1  0  0  0  0  0999 V2000
   11.7103  -12.8258   18.5206 N   0  0  0  0  0  0  0  0  0  0  0  0
   10.5570  -13.5131   18.0693 C   0  0  0  0  0  0  0  0  0  0  0  0
   10.6156  -14.5221   17.2958 N   0  0  0  0  0  0  0  0  0  0  0  0
    9.2637  -13.0546   18.5001 N   0  0  0  0  0  0  0  0  0  0  0  0
    8.1551  -13.9367   18.4657 C   0  0  0  0  0  0  0  0  0  0  0  0
    8.1743  -14.9756   19.5120 C   0  0  0  0  0  0  0  0  0  0  0  0
    8.2983  -14.5433   20.9084 C   0  0  0  0  0  0  0  0  0  0  0  0
    8.3211  -15.5213   22.0176 C   0  0  2  0  0  0  0  0  0  0  0  0
    7.1629  -16.3918   21.9992 N   0  0  0  0  0  0  0  0  0  0  0  0
    8.2976  -14.6908   23.2960 C   0  0  0  0  0  0  0  0  0  0  0  0
    8.0413  -13.4742   23.1777 O   0  0  0  0  0  0  0  0  0  0  0  0
    9.7707  -15.0723   17.0545 C   0  0  0  0  0  0  0  0  0  0  0  0
    6.2759  -11.6078   27.0886 C   0  0  0  0  0  0  0  0  0  0  0  0
    7.4566  -12.5318   27.0032 C   0  0  2  0  0  0  0  0  0  0  0  0
    7.4465  -13.4642   25.8459 C   0  0  0  0  0  0  0  0  0  0  0  0
    6.1627  -14.2812   25.8604 C   0  0  2  0  0  0  0  0  0  0  0  0
    8.5932  -14.4271   25.7831 N   0  0  0  0  0  0  0  0  0  0  0  0
    8.5504  -15.2437   24.5643 C   0  0  0  0  0  0  0  0  0  0  0  0
    8.8129  -15.2389   26.9888 O   0  0  0  0  0  0  0  0  0  0  0  0
    9.1599  -14.6592   28.0554 N   0  0  0  0  0  0  0  0  0  0  0  0
    8.6546  -16.6452   27.0352 C   0  0  0  0  0  0  0  0  0  0  0  0
    9.6313  -17.6182   26.6759 C   0  0  0  0  0  0  0  0  0  0  0  0
   10.4543  -18.1650   27.7468 O   0  0  0  0  0  0  0  0  0  0  0  0
   10.3578  -17.9411   28.9704 O   0  0  0  0  0  0  0  0  0  0  0  0
  2  1  1  0
  2  3  2  0
  4  5  1  0
  4  2  1  0
  6  7  1  0
  6  5  1  0
  7  8  1  0
  8  9  1  6
 10  8  1  0
 10 17  1  0
 11 10  2  0
 13 12  1  0
 14 16  1  0
 14 13  1  0
 14 15  1  6
 16 17  1  1
 18 20  1  0
 18 16  1  0
 19 18  2  0
 21 22  1  0
 21 20  1  0
 22 24  1  0
 23 22  2  0
M  END
$$$$
