RIG.pdb
     RDKit          3D

 24 23  0  0  1  0  0  0  0  0999 V2000
    8.6484  -15.1773   16.0995 N   0  0  0  0  0  0  0  0  0  0  0  0
    8.0160  -14.2437   16.9566 C   0  0  0  0  0  0  0  0  0  0  0  0
    8.4066  -13.0376   17.0685 N   0  0  0  0  0  0  0  0  0  0  0  0
    6.8853  -14.6724   17.7351 N   0  0  0  0  0  0  0  0  0  0  0  0
    7.0737  -15.5613   18.8226 C   0  0  0  0  0  0  0  0  0  0  0  0
    8.4308  -15.5349   19.3988 C   0  0  0  0  0  0  0  0  0  0  0  0
    8.5614  -15.6379   20.8564 C   0  0  0  0  0  0  0  0  0  0  0  0
    7.4736  -15.2030   21.7592 C   0  0  2  0  0  0  0  0  0  0  0  0
    6.7359  -14.0787   21.2198 N   0  0  0  0  0  0  0  0  0  0  0  0
    8.1609  -14.7724   23.0503 C   0  0  0  0  0  0  0  0  0  0  0  0
    9.2306  -14.1375   22.9393 O   0  0  0  0  0  0  0  0  0  0  0  0
    7.9626  -12.3819   17.7377 C   0  0  0  0  0  0  0  0  0  0  0  0
    5.9656  -11.6647   26.0790 C   0  0  0  0  0  0  0  0  0  0  0  0
    7.1352  -12.4306   25.5305 C   0  0  2  0  0  0  0  0  0  0  0  0
    7.5264  -13.6319   26.3131 C   0  0  0  0  0  0  0  0  0  0  0  0
    8.3578  -13.2087   27.5155 C   0  0  2  0  0  0  0  0  0  0  0  0
    8.3125  -14.6633   25.5619 N   0  0  0  0  0  0  0  0  0  0  0  0
    7.6366  -15.0645   24.3223 C   0  0  0  0  0  0  0  0  0  0  0  0
    8.7644  -15.8202   26.3481 O   0  0  0  0  0  0  0  0  0  0  0  0
    7.9987  -16.2854   27.2378 N   0  0  0  0  0  0  0  0  0  0  0  0
   10.0154  -16.4589   26.1685 C   0  0  0  0  0  0  0  0  0  0  0  0
   10.4773  -17.6204   26.8519 C   0  0  0  0  0  0  0  0  0  0  0  0
   11.7956  -18.1264   26.4925 O   0  0  0  0  0  0  0  0  0  0  0  0
   12.5567  -17.7004   25.6004 O   0  0  0  0  0  0  0  0  0  0  0  0
  2  1  1  0
  2  3  2  0
  4  5  1  0
  4  2  1  0
  6  7  1  0
  6  5  1  0
  7  8  1  0
  8  9  1  6
 10  8  1  0
 10 17  1  0
 11 10  2  0
 13 12  1  0
 14 16  1  0
 14 13  1  0
 14 15  1  1
 16 17  1  6
 18 20  1  0
 18 16  1  0
 19 18  2  0
 21 22  1  0
 21 20  1  0
 22 24  1  0
 23 22  2  0
M  END
$$$$
