RIG.pdb
     RDKit          3D

 24 23  0  0  1  0  0  0  0  0999 V2000
    7.8293  -16.5810   17.1130 N   0  0  0  0  0  0  0  0  0  0  0  0
    7.9359  -15.4126   16.3196 C   0  0  0  0  0  0  0  0  0  0  0  0
    8.2534  -15.4438   15.0875 N   0  0  0  0  0  0  0  0  0  0  0  0
    7.6758  -14.1355   16.9277 N   0  0  0  0  0  0  0  0  0  0  0  0
    6.9858  -14.0701   18.1637 C   0  0  0  0  0  0  0  0  0  0  0  0
    7.3707  -15.1165   19.1288 C   0  0  0  0  0  0  0  0  0  0  0  0
    8.0265  -14.6977   20.3724 C   0  0  0  0  0  0  0  0  0  0  0  0
    7.7498  -13.3790   20.9822 C   0  0  2  0  0  0  0  0  0  0  0  0
    8.4269  -12.3044   20.2849 N   0  0  0  0  0  0  0  0  0  0  0  0
    8.2896  -13.4648   22.4055 C   0  0  0  0  0  0  0  0  0  0  0  0
    9.5039  -13.2221   22.5675 O   0  0  0  0  0  0  0  0  0  0  0  0
    8.3742  -14.5750   14.5348 C   0  0  0  0  0  0  0  0  0  0  0  0
    5.3249  -11.4929   26.5242 C   0  0  0  0  0  0  0  0  0  0  0  0
    6.4803  -11.9099   25.6604 C   0  0  2  0  0  0  0  0  0  0  0  0
    6.9359  -13.3119   25.8487 C   0  0  0  0  0  0  0  0  0  0  0  0
    7.4982  -13.4812   27.2527 C   0  0  2  0  0  0  0  0  0  0  0  0
    7.9806  -13.7858   24.8843 N   0  0  0  0  0  0  0  0  0  0  0  0
    7.4793  -13.8008   23.5049 C   0  0  0  0  0  0  0  0  0  0  0  0
    8.6597  -15.0393   25.2427 O   0  0  0  0  0  0  0  0  0  0  0  0
    9.1648  -15.1476   26.3947 N   0  0  0  0  0  0  0  0  0  0  0  0
    8.7825  -16.1494   24.3723 C   0  0  0  0  0  0  0  0  0  0  0  0
    9.3411  -17.4195   24.6957 C   0  0  0  0  0  0  0  0  0  0  0  0
   10.7457  -17.4522   25.0819 O   0  0  0  0  0  0  0  0  0  0  0  0
   11.5415  -16.4929   25.1392 O   0  0  0  0  0  0  0  0  0  0  0  0
  2  1  1  0
  2  3  2  0
  4  5  1  0
  4  2  1  0
  6  7  1  0
  6  5  1  0
  7  8  1  0
  8  9  1  6
 10  8  1  0
 10 17  1  0
 11 10  2  0
 13 12  1  0
 14 16  1  0
 14 13  1  0
 14 15  1  6
 16 17  1  6
 18 20  1  0
 18 16  1  0
 19 18  2  0
 21 22  1  0
 21 20  1  0
 22 24  1  0
 23 22  2  0
M  END
$$$$
