RIG.pdb
     RDKit          3D

 24 23  0  0  1  0  0  0  0  0999 V2000
    7.9184  -13.2413   16.6127 N   0  0  0  0  0  0  0  0  0  0  0  0
    8.6664  -13.1581   17.8125 C   0  0  0  0  0  0  0  0  0  0  0  0
    8.8997  -12.0552   18.4031 N   0  0  0  0  0  0  0  0  0  0  0  0
    9.1864  -14.3680   18.3907 N   0  0  0  0  0  0  0  0  0  0  0  0
    8.4593  -15.5780   18.2673 C   0  0  0  0  0  0  0  0  0  0  0  0
    7.5664  -15.8673   19.4046 C   0  0  0  0  0  0  0  0  0  0  0  0
    8.1570  -16.4607   20.6093 C   0  0  0  0  0  0  0  0  0  0  0  0
    7.3258  -16.8117   21.7811 C   0  0  2  0  0  0  0  0  0  0  0  0
    5.9218  -16.5337   21.5550 N   0  0  0  0  0  0  0  0  0  0  0  0
    7.8293  -15.9304   22.9189 C   0  0  0  0  0  0  0  0  0  0  0  0
    8.6512  -15.0374   22.6239 O   0  0  0  0  0  0  0  0  0  0  0  0
    9.5015  -12.0061   19.2458 C   0  0  0  0  0  0  0  0  0  0  0  0
    8.3432  -12.2864   26.9488 C   0  0  0  0  0  0  0  0  0  0  0  0
    7.8915  -13.7010   27.1722 C   0  0  2  0  0  0  0  0  0  0  0  0
    7.2859  -14.3650   25.9886 C   0  0  0  0  0  0  0  0  0  0  0  0
    5.9346  -14.9524   26.3692 C   0  0  2  0  0  0  0  0  0  0  0  0
    8.1005  -15.4656   25.3792 N   0  0  0  0  0  0  0  0  0  0  0  0
    7.4051  -16.0941   24.2498 C   0  0  0  0  0  0  0  0  0  0  0  0
    8.6414  -16.4568   26.3203 O   0  0  0  0  0  0  0  0  0  0  0  0
    7.8759  -17.3627   26.7535 N   0  0  0  0  0  0  0  0  0  0  0  0
    9.9822  -16.4663   26.7755 C   0  0  0  0  0  0  0  0  0  0  0  0
   10.5997  -17.4786   27.5651 C   0  0  0  0  0  0  0  0  0  0  0  0
   10.5222  -17.3358   29.0132 O   0  0  0  0  0  0  0  0  0  0  0  0
    9.9788  -16.4170   29.6590 O   0  0  0  0  0  0  0  0  0  0  0  0
  2  1  1  0
  2  3  2  0
  4  5  1  0
  4  2  1  0
  6  7  1  0
  6  5  1  0
  7  8  1  0
  8  9  1  6
 10  8  1  0
 10 17  1  0
 11 10  2  0
 13 12  1  0
 14 16  1  0
 14 13  1  0
 14 15  1  6
 16 17  1  1
 18 20  1  0
 18 16  1  0
 19 18  2  0
 21 22  1  0
 21 20  1  0
 22 24  1  0
 23 22  2  0
M  END
$$$$
