ETK.pdb
     RDKit          3D

 26 25  0  0  1  0  0  0  0  0999 V2000
   23.5098  -14.7506  -17.2852 N   0  0  0  0  0  0  0  0  0  0  0  0
   23.5924  -13.4682  -17.8974 C   0  0  1  0  0  0  0  0  0  0  0  0
   22.4645  -13.3000  -18.8747 C   0  0  0  0  0  0  0  0  0  0  0  0
   22.0631  -14.5906  -19.5145 C   0  0  0  0  0  0  0  0  0  0  0  0
   21.0194  -14.4642  -20.5483 C   0  0  0  0  0  0  0  0  0  0  0  0
   21.2898  -14.4603  -21.7738 O   0  0  0  0  0  0  0  0  0  0  0  0
   23.5297  -12.3482  -16.9277 C   0  0  0  0  0  0  0  0  0  0  0  0
   22.8783  -12.5148  -15.8641 O   0  0  0  0  0  0  0  0  0  0  0  0
   19.6950  -14.3456  -20.1621 O   0  0  0  0  0  0  0  0  0  0  0  0
   26.2583  -10.7276  -15.1871 C   0  0  0  0  0  0  0  0  0  0  0  0
   25.4993   -9.5455  -15.7676 C   0  0  1  0  0  0  0  0  0  0  0  0
   26.2185   -9.1356  -16.8893 O   0  0  0  0  0  0  0  0  0  0  0  0
   24.1187  -10.0307  -16.1335 C   0  0  2  0  0  0  0  0  0  0  0  0
   24.1592  -11.0925  -17.1200 N   0  0  0  0  0  0  0  0  0  0  0  0
   23.3447   -8.8804  -16.6639 C   0  0  0  0  0  0  0  0  0  0  0  0
   23.3192   -8.6464  -17.8951 O   0  0  0  0  0  0  0  0  0  0  0  0
   22.6068   -8.0007  -15.8290 N   0  0  0  0  0  0  0  0  0  0  0  0
   21.8663   -6.8458  -16.3660 C   0  0  1  0  0  0  0  0  0  0  0  0
   20.4284   -6.9744  -15.9300 C   0  0  0  0  0  0  0  0  0  0  0  0
   19.5431   -5.8519  -16.3332 C   0  0  0  0  0  0  0  0  0  0  0  0
   18.1152   -6.0316  -15.8596 C   0  0  0  0  0  0  0  0  0  0  0  0
   17.2141   -4.9470  -16.3997 C   0  0  0  0  0  0  0  0  0  0  0  0
   15.8509   -5.3488  -16.0863 N   0  0  0  0  0  0  0  0  0  0  0  0
   22.4898   -5.5858  -15.9475 C   0  0  0  0  0  0  0  0  0  0  0  0
   23.1508   -5.5230  -14.9002 O   0  0  0  0  0  0  0  0  0  0  0  0
   22.3377   -4.4580  -16.7300 O   0  0  0  0  0  0  0  0  0  0  0  0
  2  1  1  1
  2  7  1  0
  3  2  1  0
  4  3  1  0
  5  4  1  0
  6  5  2  0
  7  8  2  0
  9  5  1  0
 11 12  1  0
 11 10  1  6
 13 11  1  0
 14  7  1  0
 13 14  1  6
 15 13  1  0
 15 16  2  0
 17 15  1  0
 18 17  1  0
 18 19  1  1
 20 19  1  0
 21 20  1  0
 22 21  1  0
 23 22  1  0
 24 18  1  0
 25 24  2  0
 26 24  1  0
M  END
$$$$
