ETK.pdb
     RDKit          3D

 26 25  0  0  1  0  0  0  0  0999 V2000
   28.4568  -22.2460  -19.0549 N   0  0  0  0  0  0  0  0  0  0  0  0
   27.4986  -21.3275  -18.5408 C   0  0  1  0  0  0  0  0  0  0  0  0
   26.3849  -21.1495  -19.5327 C   0  0  0  0  0  0  0  0  0  0  0  0
   26.1696  -19.7164  -19.9016 C   0  0  0  0  0  0  0  0  0  0  0  0
   25.0984  -19.4917  -20.8897 C   0  0  0  0  0  0  0  0  0  0  0  0
   24.8258  -18.3491  -21.3313 O   0  0  0  0  0  0  0  0  0  0  0  0
   26.9017  -21.7588  -17.2538 C   0  0  0  0  0  0  0  0  0  0  0  0
   27.3291  -22.8158  -16.7217 O   0  0  0  0  0  0  0  0  0  0  0  0
   24.3648  -20.5720  -21.3503 O   0  0  0  0  0  0  0  0  0  0  0  0
   27.2971  -20.7992  -14.0092 C   0  0  0  0  0  0  0  0  0  0  0  0
   25.8003  -20.5893  -14.1699 C   0  0  1  0  0  0  0  0  0  0  0  0
   25.6279  -19.2389  -14.4699 O   0  0  0  0  0  0  0  0  0  0  0  0
   25.3381  -21.4774  -15.2982 C   0  0  2  0  0  0  0  0  0  0  0  0
   25.8738  -21.0546  -16.5775 N   0  0  0  0  0  0  0  0  0  0  0  0
   23.8546  -21.4468  -15.3391 C   0  0  0  0  0  0  0  0  0  0  0  0
   23.2570  -20.6505  -16.1007 O   0  0  0  0  0  0  0  0  0  0  0  0
   23.0464  -22.2962  -14.5385 N   0  0  0  0  0  0  0  0  0  0  0  0
   21.5758  -22.2905  -14.6255 C   0  0  1  0  0  0  0  0  0  0  0  0
   21.0640  -23.5056  -13.8935 C   0  0  0  0  0  0  0  0  0  0  0  0
   19.6031  -23.7464  -14.0131 C   0  0  0  0  0  0  0  0  0  0  0  0
   19.1403  -24.9513  -13.2196 C   0  0  0  0  0  0  0  0  0  0  0  0
   17.6757  -25.2360  -13.4527 C   0  0  0  0  0  0  0  0  0  0  0  0
   17.3296  -26.3531  -12.5865 N   0  0  0  0  0  0  0  0  0  0  0  0
   21.0277  -21.0301  -14.1131 C   0  0  0  0  0  0  0  0  0  0  0  0
   21.5929  -20.4210  -13.1926 O   0  0  0  0  0  0  0  0  0  0  0  0
   19.8692  -20.5178  -14.6634 O   0  0  0  0  0  0  0  0  0  0  0  0
  2  1  1  6
  2  7  1  0
  3  2  1  0
  4  3  1  0
  5  4  1  0
  6  5  2  0
  7  8  2  0
  9  5  1  0
 11 12  1  0
 11 10  1  6
 13 11  1  0
 14  7  1  0
 13 14  1  6
 15 13  1  0
 15 16  2  0
 17 15  1  0
 18 17  1  0
 18 19  1  1
 20 19  1  0
 21 20  1  0
 22 21  1  0
 23 22  1  0
 24 18  1  0
 25 24  2  0
 26 24  1  0
M  END
$$$$
