ETK.pdb
     RDKit          3D

 26 25  0  0  1  0  0  0  0  0999 V2000
   16.6534  -11.5465  -16.6827 N   0  0  0  0  0  0  0  0  0  0  0  0
   16.9450  -12.1165  -15.4113 C   0  0  1  0  0  0  0  0  0  0  0  0
   18.0899  -13.0801  -15.5390 C   0  0  0  0  0  0  0  0  0  0  0  0
   17.7697  -14.2355  -16.4326 C   0  0  0  0  0  0  0  0  0  0  0  0
   17.7019  -15.5399  -15.7482 C   0  0  0  0  0  0  0  0  0  0  0  0
   17.9833  -15.6719  -14.5324 O   0  0  0  0  0  0  0  0  0  0  0  0
   17.3053  -11.1099  -14.3840 C   0  0  0  0  0  0  0  0  0  0  0  0
   17.7017  -11.5175  -13.2615 O   0  0  0  0  0  0  0  0  0  0  0  0
   17.3158  -16.6605  -16.4640 O   0  0  0  0  0  0  0  0  0  0  0  0
   19.6788   -8.1554  -14.4294 C   0  0  0  0  0  0  0  0  0  0  0  0
   18.3318   -7.5919  -14.0072 C   0  0  1  0  0  0  0  0  0  0  0  0
   17.7896   -6.9911  -15.1423 O   0  0  0  0  0  0  0  0  0  0  0  0
   17.4889   -8.7473  -13.5278 C   0  0  2  0  0  0  0  0  0  0  0  0
   17.2325   -9.7081  -14.5830 N   0  0  0  0  0  0  0  0  0  0  0  0
   16.2043   -8.2075  -13.0159 C   0  0  0  0  0  0  0  0  0  0  0  0
   15.2025   -8.1353  -13.7658 O   0  0  0  0  0  0  0  0  0  0  0  0
   16.0396   -7.7533  -11.6809 N   0  0  0  0  0  0  0  0  0  0  0  0
   14.8097   -7.0812  -11.2269 C   0  0  1  0  0  0  0  0  0  0  0  0
   14.1483   -7.9687  -10.2027 C   0  0  0  0  0  0  0  0  0  0  0  0
   12.8837   -7.4395   -9.6306 C   0  0  0  0  0  0  0  0  0  0  0  0
   12.2768   -8.3633   -8.5943 C   0  0  0  0  0  0  0  0  0  0  0  0
   11.0007   -7.7911   -8.0250 C   0  0  0  0  0  0  0  0  0  0  0  0
   10.4665   -8.7961   -7.1180 N   0  0  0  0  0  0  0  0  0  0  0  0
   15.1058   -5.7352  -10.7247 C   0  0  0  0  0  0  0  0  0  0  0  0
   16.2480   -5.4375  -10.3447 O   0  0  0  0  0  0  0  0  0  0  0  0
   14.0996   -4.7904  -10.6753 O   0  0  0  0  0  0  0  0  0  0  0  0
  2  1  1  6
  2  7  1  0
  3  2  1  0
  4  3  1  0
  5  4  1  0
  6  5  2  0
  7  8  2  0
  9  5  1  0
 11 12  1  0
 11 10  1  6
 13 11  1  0
 14  7  1  0
 13 14  1  6
 15 13  1  0
 15 16  2  0
 17 15  1  0
 18 17  1  0
 18 19  1  1
 20 19  1  0
 21 20  1  0
 22 21  1  0
 23 22  1  0
 24 18  1  0
 25 24  2  0
 26 24  1  0
M  END
$$$$
