ETK.pdb
     RDKit          3D

 26 25  0  0  1  0  0  0  0  0999 V2000
   29.1513  -24.1492  -17.0731 N   0  0  0  0  0  0  0  0  0  0  0  0
   29.3129  -22.8546  -17.6423 C   0  0  1  0  0  0  0  0  0  0  0  0
   29.2665  -22.9508  -19.1405 C   0  0  0  0  0  0  0  0  0  0  0  0
   28.2455  -23.9323  -19.6204 C   0  0  0  0  0  0  0  0  0  0  0  0
   28.0619  -23.9605  -21.0832 C   0  0  0  0  0  0  0  0  0  0  0  0
   27.3120  -24.7943  -21.6465 O   0  0  0  0  0  0  0  0  0  0  0  0
   28.2731  -21.8889  -17.2125 C   0  0  0  0  0  0  0  0  0  0  0  0
   27.7284  -22.0574  -16.0909 O   0  0  0  0  0  0  0  0  0  0  0  0
   28.7356  -23.0398  -21.8678 O   0  0  0  0  0  0  0  0  0  0  0  0
   28.6706  -18.3572  -16.5131 C   0  0  0  0  0  0  0  0  0  0  0  0
   27.5385  -18.3900  -17.5267 C   0  0  1  0  0  0  0  0  0  0  0  0
   28.1179  -18.1151  -18.7646 O   0  0  0  0  0  0  0  0  0  0  0  0
   26.9346  -19.7716  -17.4851 C   0  0  2  0  0  0  0  0  0  0  0  0
   27.8481  -20.7797  -17.9866 N   0  0  0  0  0  0  0  0  0  0  0  0
   25.6953  -19.7645  -18.3022 C   0  0  0  0  0  0  0  0  0  0  0  0
   25.7120  -20.1823  -19.4839 O   0  0  0  0  0  0  0  0  0  0  0  0
   24.4505  -19.2962  -17.8055 N   0  0  0  0  0  0  0  0  0  0  0  0
   23.2148  -19.3535  -18.6056 C   0  0  1  0  0  0  0  0  0  0  0  0
   22.0457  -19.3445  -17.6532 C   0  0  0  0  0  0  0  0  0  0  0  0
   20.7091  -19.4512  -18.2924 C   0  0  0  0  0  0  0  0  0  0  0  0
   19.5736  -19.3957  -17.2908 C   0  0  0  0  0  0  0  0  0  0  0  0
   18.2304  -19.4946  -17.9736 C   0  0  0  0  0  0  0  0  0  0  0  0
   17.2321  -19.5405  -16.9156 N   0  0  0  0  0  0  0  0  0  0  0  0
   23.1756  -18.2612  -19.5838 C   0  0  0  0  0  0  0  0  0  0  0  0
   23.7693  -17.1944  -19.3667 O   0  0  0  0  0  0  0  0  0  0  0  0
   22.4688  -18.4247  -20.7590 O   0  0  0  0  0  0  0  0  0  0  0  0
  2  1  1  1
  2  7  1  0
  3  2  1  0
  4  3  1  0
  5  4  1  0
  6  5  2  0
  7  8  2  0
  9  5  1  0
 11 12  1  0
 11 10  1  1
 13 11  1  0
 14  7  1  0
 13 14  1  6
 15 13  1  0
 15 16  2  0
 17 15  1  0
 18 17  1  0
 18 19  1  1
 20 19  1  0
 21 20  1  0
 22 21  1  0
 23 22  1  0
 24 18  1  0
 25 24  2  0
 26 24  1  0
M  END
$$$$
