ETK.pdb
     RDKit          3D

 26 25  0  0  1  0  0  0  0  0999 V2000
   26.0706  -21.4580  -11.1437 N   0  0  0  0  0  0  0  0  0  0  0  0
   26.4289  -21.1034  -12.4749 C   0  0  1  0  0  0  0  0  0  0  0  0
   26.1203  -22.2432  -13.4030 C   0  0  0  0  0  0  0  0  0  0  0  0
   24.7949  -22.8732  -13.1161 C   0  0  0  0  0  0  0  0  0  0  0  0
   23.7356  -22.5425  -14.0870 C   0  0  0  0  0  0  0  0  0  0  0  0
   23.6523  -23.1090  -15.2037 O   0  0  0  0  0  0  0  0  0  0  0  0
   25.7202  -19.9006  -12.9744 C   0  0  0  0  0  0  0  0  0  0  0  0
   24.9976  -19.2563  -12.1708 O   0  0  0  0  0  0  0  0  0  0  0  0
   22.7982  -21.5763  -13.7631 O   0  0  0  0  0  0  0  0  0  0  0  0
   27.2375  -16.8753  -14.7071 C   0  0  0  0  0  0  0  0  0  0  0  0
   26.1063  -17.3607  -15.5987 C   0  0  1  0  0  0  0  0  0  0  0  0
   26.7030  -18.1214  -16.6031 O   0  0  0  0  0  0  0  0  0  0  0  0
   25.1806  -18.1893  -14.7433 C   0  0  2  0  0  0  0  0  0  0  0  0
   25.8028  -19.4242  -14.3072 N   0  0  0  0  0  0  0  0  0  0  0  0
   23.9607  -18.4922  -15.5331 C   0  0  0  0  0  0  0  0  0  0  0  0
   23.7663  -19.6458  -15.9831 O   0  0  0  0  0  0  0  0  0  0  0  0
   22.9682  -17.5177  -15.8173 N   0  0  0  0  0  0  0  0  0  0  0  0
   21.7695  -17.8283  -16.6155 C   0  0  1  0  0  0  0  0  0  0  0  0
   20.7585  -16.7351  -16.3772 C   0  0  0  0  0  0  0  0  0  0  0  0
   19.4926  -16.8673  -17.1430 C   0  0  0  0  0  0  0  0  0  0  0  0
   18.5703  -15.6790  -16.9614 C   0  0  0  0  0  0  0  0  0  0  0  0
   17.3127  -15.8260  -17.7842 C   0  0  0  0  0  0  0  0  0  0  0  0
   16.4813  -14.6716  -17.4770 N   0  0  0  0  0  0  0  0  0  0  0  0
   22.1153  -18.0015  -18.0304 C   0  0  0  0  0  0  0  0  0  0  0  0
   23.0239  -17.3343  -18.5470 O   0  0  0  0  0  0  0  0  0  0  0  0
   21.4197  -18.9183  -18.7940 O   0  0  0  0  0  0  0  0  0  0  0  0
  2  1  1  1
  2  7  1  0
  3  2  1  0
  4  3  1  0
  5  4  1  0
  6  5  2  0
  7  8  2  0
  9  5  1  0
 11 12  1  0
 11 10  1  1
 13 11  1  0
 14  7  1  0
 13 14  1  6
 15 13  1  0
 15 16  2  0
 17 15  1  0
 18 17  1  0
 18 19  1  6
 20 19  1  0
 21 20  1  0
 22 21  1  0
 23 22  1  0
 24 18  1  0
 25 24  2  0
 26 24  1  0
M  END
$$$$
