ETK.pdb
     RDKit          3D

 26 25  0  0  1  0  0  0  0  0999 V2000
   15.2654  -11.9218  -14.8559 N   0  0  0  0  0  0  0  0  0  0  0  0
   16.6508  -11.6436  -14.6847 C   0  0  1  0  0  0  0  0  0  0  0  0
   17.4344  -12.2650  -15.8053 C   0  0  0  0  0  0  0  0  0  0  0  0
   17.4182  -13.7594  -15.7561 C   0  0  0  0  0  0  0  0  0  0  0  0
   18.2508  -14.4159  -16.7808 C   0  0  0  0  0  0  0  0  0  0  0  0
   19.4604  -14.1252  -16.9456 O   0  0  0  0  0  0  0  0  0  0  0  0
   16.9607  -10.1939  -14.6574 C   0  0  0  0  0  0  0  0  0  0  0  0
   16.4842   -9.4640  -15.5648 O   0  0  0  0  0  0  0  0  0  0  0  0
   17.6865  -15.3861  -17.5917 O   0  0  0  0  0  0  0  0  0  0  0  0
   15.9426   -7.7294  -12.3837 C   0  0  0  0  0  0  0  0  0  0  0  0
   17.4463   -7.5081  -12.3794 C   0  0  1  0  0  0  0  0  0  0  0  0
   17.9271   -8.1319  -11.2291 O   0  0  0  0  0  0  0  0  0  0  0  0
   17.9996   -8.1399  -13.6325 C   0  0  2  0  0  0  0  0  0  0  0  0
   17.7643   -9.5701  -13.6699 N   0  0  0  0  0  0  0  0  0  0  0  0
   19.4579   -7.8684  -13.6878 C   0  0  0  0  0  0  0  0  0  0  0  0
   20.2665   -8.6213  -13.0958 O   0  0  0  0  0  0  0  0  0  0  0  0
   20.0080   -6.7681  -14.3966 N   0  0  0  0  0  0  0  0  0  0  0  0
   21.4561   -6.4989  -14.4266 C   0  0  1  0  0  0  0  0  0  0  0  0
   21.8798   -6.4052  -15.8709 C   0  0  0  0  0  0  0  0  0  0  0  0
   23.3229   -6.1292  -16.0893 C   0  0  0  0  0  0  0  0  0  0  0  0
   23.6813   -6.0071  -17.5564 C   0  0  0  0  0  0  0  0  0  0  0  0
   25.1517   -5.7187  -17.7429 C   0  0  0  0  0  0  0  0  0  0  0  0
   25.4004   -5.7536  -19.1764 N   0  0  0  0  0  0  0  0  0  0  0  0
   21.7801   -5.2994  -13.6472 C   0  0  0  0  0  0  0  0  0  0  0  0
   22.9439   -5.0760  -13.2820 O   0  0  0  0  0  0  0  0  0  0  0  0
   20.7761   -4.4101  -13.3172 O   0  0  0  0  0  0  0  0  0  0  0  0
  2  1  1  6
  2  7  1  0
  3  2  1  0
  4  3  1  0
  5  4  1  0
  6  5  2  0
  7  8  2  0
  9  5  1  0
 11 12  1  0
 11 10  1  6
 13 11  1  0
 14  7  1  0
 13 14  1  1
 15 13  1  0
 15 16  2  0
 17 15  1  0
 18 17  1  0
 18 19  1  6
 20 19  1  0
 21 20  1  0
 22 21  1  0
 23 22  1  0
 24 18  1  0
 25 24  2  0
 26 24  1  0
M  END
$$$$
