ETK.pdb
     RDKit          3D

 26 25  0  0  1  0  0  0  0  0999 V2000
   23.7571  -19.5127  -18.2095 N   0  0  0  0  0  0  0  0  0  0  0  0
   23.8315  -18.9449  -16.9064 C   0  0  1  0  0  0  0  0  0  0  0  0
   22.4717  -18.4671  -16.4838 C   0  0  0  0  0  0  0  0  0  0  0  0
   21.9701  -17.3425  -17.3320 C   0  0  0  0  0  0  0  0  0  0  0  0
   20.6995  -16.7495  -16.8758 C   0  0  0  0  0  0  0  0  0  0  0  0
   20.5796  -16.2133  -15.7475 O   0  0  0  0  0  0  0  0  0  0  0  0
   24.3241  -19.8933  -15.8786 C   0  0  0  0  0  0  0  0  0  0  0  0
   23.8266  -21.0485  -15.8443 O   0  0  0  0  0  0  0  0  0  0  0  0
   19.5981  -16.7814  -17.7142 O   0  0  0  0  0  0  0  0  0  0  0  0
   27.5293  -21.3917  -15.3967 C   0  0  0  0  0  0  0  0  0  0  0  0
   27.2655  -20.7880  -14.0270 C   0  0  1  0  0  0  0  0  0  0  0  0
   28.0021  -19.6056  -13.9757 O   0  0  0  0  0  0  0  0  0  0  0  0
   25.7829  -20.5294  -13.9251 C   0  0  2  0  0  0  0  0  0  0  0  0
   25.3259  -19.5834  -14.9244 N   0  0  0  0  0  0  0  0  0  0  0  0
   25.4922  -20.0060  -12.5668 C   0  0  0  0  0  0  0  0  0  0  0  0
   25.3972  -18.7719  -12.3692 O   0  0  0  0  0  0  0  0  0  0  0  0
   25.3092  -20.8513  -11.4409 N   0  0  0  0  0  0  0  0  0  0  0  0
   25.1423  -20.3176  -10.0779 C   0  0  1  0  0  0  0  0  0  0  0  0
   24.0412  -21.0990   -9.4063 C   0  0  0  0  0  0  0  0  0  0  0  0
   23.8023  -20.7565   -7.9808 C   0  0  0  0  0  0  0  0  0  0  0  0
   22.7379  -21.6234   -7.3396 C   0  0  0  0  0  0  0  0  0  0  0  0
   22.5505  -21.2790   -5.8814 C   0  0  0  0  0  0  0  0  0  0  0  0
   21.5649  -22.2142   -5.3599 N   0  0  0  0  0  0  0  0  0  0  0  0
   26.4118  -20.3546   -9.3440 C   0  0  0  0  0  0  0  0  0  0  0  0
   27.3098  -21.1449   -9.6705 O   0  0  0  0  0  0  0  0  0  0  0  0
   26.6069  -19.4988   -8.2777 O   0  0  0  0  0  0  0  0  0  0  0  0
  2  1  1  6
  2  7  1  0
  3  2  1  0
  4  3  1  0
  5  4  1  0
  6  5  2  0
  7  8  2  0
  9  5  1  0
 11 12  1  0
 11 10  1  6
 13 11  1  0
 14  7  1  0
 13 14  1  6
 15 13  1  0
 15 16  2  0
 17 15  1  0
 18 17  1  0
 18 19  1  1
 20 19  1  0
 21 20  1  0
 22 21  1  0
 23 22  1  0
 24 18  1  0
 25 24  2  0
 26 24  1  0
M  END
$$$$
