ETK.pdb
     RDKit          3D

 26 25  0  0  1  0  0  0  0  0999 V2000
   21.3615  -16.6987  -16.8414 N   0  0  0  0  0  0  0  0  0  0  0  0
   20.9654  -15.4083  -17.2931 C   0  0  1  0  0  0  0  0  0  0  0  0
   19.4957  -15.4092  -17.6025 C   0  0  0  0  0  0  0  0  0  0  0  0
   18.7339  -16.3845  -16.7632 C   0  0  0  0  0  0  0  0  0  0  0  0
   17.2828  -16.4153  -17.0232 C   0  0  0  0  0  0  0  0  0  0  0  0
   16.7971  -16.9771  -18.0348 O   0  0  0  0  0  0  0  0  0  0  0  0
   21.2253  -14.3337  -16.3051 C   0  0  0  0  0  0  0  0  0  0  0  0
   20.9520  -14.5543  -15.0969 O   0  0  0  0  0  0  0  0  0  0  0  0
   16.4213  -15.8065  -16.1262 O   0  0  0  0  0  0  0  0  0  0  0  0
   24.2187  -13.0479  -15.0977 C   0  0  0  0  0  0  0  0  0  0  0  0
   23.5348  -11.7643  -15.5392 C   0  0  1  0  0  0  0  0  0  0  0  0
   24.0836  -11.4387  -16.7786 O   0  0  0  0  0  0  0  0  0  0  0  0
   22.0571  -12.0507  -15.6384 C   0  0  2  0  0  0  0  0  0  0  0  0
   21.7652  -13.0645  -16.6330 N   0  0  0  0  0  0  0  0  0  0  0  0
   21.3590  -10.7880  -15.9871 C   0  0  0  0  0  0  0  0  0  0  0  0
   20.9064  -10.6113  -17.1426 O   0  0  0  0  0  0  0  0  0  0  0  0
   21.1678   -9.7335  -15.0559 N   0  0  0  0  0  0  0  0  0  0  0  0
   20.5806   -8.4397  -15.4452 C   0  0  1  0  0  0  0  0  0  0  0  0
   19.1024   -8.4952  -15.1518 C   0  0  0  0  0  0  0  0  0  0  0  0
   18.3533   -7.2459  -15.4425 C   0  0  0  0  0  0  0  0  0  0  0  0
   16.8697   -7.3729  -15.1626 C   0  0  0  0  0  0  0  0  0  0  0  0
   16.1386   -6.0874  -15.4682 C   0  0  0  0  0  0  0  0  0  0  0  0
   14.7177   -6.3948  -15.4008 N   0  0  0  0  0  0  0  0  0  0  0  0
   21.2655   -7.3318  -14.7707 C   0  0  0  0  0  0  0  0  0  0  0  0
   21.9915   -7.5403  -13.7872 O   0  0  0  0  0  0  0  0  0  0  0  0
   21.0985   -6.0428  -15.2377 O   0  0  0  0  0  0  0  0  0  0  0  0
  2  1  1  1
  2  7  1  0
  3  2  1  0
  4  3  1  0
  5  4  1  0
  6  5  2  0
  7  8  2  0
  9  5  1  0
 11 12  1  0
 11 10  1  6
 13 11  1  0
 14  7  1  0
 13 14  1  6
 15 13  1  0
 15 16  2  0
 17 15  1  0
 18 17  1  0
 18 19  1  1
 20 19  1  0
 21 20  1  0
 22 21  1  0
 23 22  1  0
 24 18  1  0
 25 24  2  0
 26 24  1  0
M  END
$$$$
