ETK.pdb
     RDKit          3D

 26 25  0  0  1  0  0  0  0  0999 V2000
   17.4782  -13.1270  -15.4367 N   0  0  0  0  0  0  0  0  0  0  0  0
   16.5433  -12.1170  -15.0735 C   0  0  1  0  0  0  0  0  0  0  0  0
   15.2876  -12.7537  -14.5503 C   0  0  0  0  0  0  0  0  0  0  0  0
   14.4143  -13.2816  -15.6432 C   0  0  0  0  0  0  0  0  0  0  0  0
   14.6183  -14.7080  -15.9564 C   0  0  0  0  0  0  0  0  0  0  0  0
   14.3948  -15.6147  -15.1180 O   0  0  0  0  0  0  0  0  0  0  0  0
   17.0534  -11.1888  -14.0358 C   0  0  0  0  0  0  0  0  0  0  0  0
   17.5433  -11.6783  -12.9853 O   0  0  0  0  0  0  0  0  0  0  0  0
   15.0711  -15.0667  -17.2148 O   0  0  0  0  0  0  0  0  0  0  0  0
   19.8941   -9.0389  -13.9731 C   0  0  0  0  0  0  0  0  0  0  0  0
   18.7441   -8.0817  -13.7057 C   0  0  1  0  0  0  0  0  0  0  0  0
   18.4238   -7.5071  -14.9348 O   0  0  0  0  0  0  0  0  0  0  0  0
   17.6000   -8.8936  -13.1515 C   0  0  2  0  0  0  0  0  0  0  0  0
   17.0260   -9.7758  -14.1487 N   0  0  0  0  0  0  0  0  0  0  0  0
   16.5624   -7.9576  -12.6508 C   0  0  0  0  0  0  0  0  0  0  0  0
   15.5181   -7.7542  -13.3138 O   0  0  0  0  0  0  0  0  0  0  0  0
   16.6888   -7.2560  -11.4230 N   0  0  0  0  0  0  0  0  0  0  0  0
   15.7091   -6.2429  -10.9937 C   0  0  1  0  0  0  0  0  0  0  0  0
   15.5006   -6.4007   -9.5085 C   0  0  0  0  0  0  0  0  0  0  0  0
   14.5306   -5.4530   -8.9025 C   0  0  0  0  0  0  0  0  0  0  0  0
   14.3510   -5.6693   -7.4137 C   0  0  0  0  0  0  0  0  0  0  0  0
   13.3595   -4.6915   -6.8298 C   0  0  0  0  0  0  0  0  0  0  0  0
   13.2282   -5.0291   -5.4202 N   0  0  0  0  0  0  0  0  0  0  0  0
   16.1473   -4.8972  -11.3791 C   0  0  0  0  0  0  0  0  0  0  0  0
   15.3208   -3.9950  -11.5806 O   0  0  0  0  0  0  0  0  0  0  0  0
   17.4960   -4.6342  -11.5184 O   0  0  0  0  0  0  0  0  0  0  0  0
  2  1  1  1
  2  7  1  0
  3  2  1  0
  4  3  1  0
  5  4  1  0
  6  5  2  0
  7  8  2  0
  9  5  1  0
 11 12  1  0
 11 10  1  6
 13 11  1  0
 14  7  1  0
 13 14  1  6
 15 13  1  0
 15 16  2  0
 17 15  1  0
 18 17  1  0
 18 19  1  1
 20 19  1  0
 21 20  1  0
 22 21  1  0
 23 22  1  0
 24 18  1  0
 25 24  2  0
 26 24  1  0
M  END
$$$$
