ETK.pdb
     RDKit          3D

 26 25  0  0  1  0  0  0  0  0999 V2000
   22.1438  -13.3330  -17.5310 N   0  0  0  0  0  0  0  0  0  0  0  0
   21.8497  -11.9817  -17.8683 C   0  0  1  0  0  0  0  0  0  0  0  0
   20.9675  -11.9436  -19.0833 C   0  0  0  0  0  0  0  0  0  0  0  0
   21.5455  -12.7018  -20.2353 C   0  0  0  0  0  0  0  0  0  0  0  0
   20.7206  -12.6835  -21.4573 C   0  0  0  0  0  0  0  0  0  0  0  0
   20.9963  -11.9516  -22.4387 O   0  0  0  0  0  0  0  0  0  0  0  0
   21.1660  -11.2395  -16.7818 C   0  0  0  0  0  0  0  0  0  0  0  0
   20.3330  -11.8570  -16.0691 O   0  0  0  0  0  0  0  0  0  0  0  0
   19.6034  -13.4982  -21.5321 O   0  0  0  0  0  0  0  0  0  0  0  0
   22.4118   -9.9392  -13.7470 C   0  0  0  0  0  0  0  0  0  0  0  0
   21.7654   -8.7088  -14.3622 C   0  0  1  0  0  0  0  0  0  0  0  0
   22.7974   -7.9850  -14.9577 O   0  0  0  0  0  0  0  0  0  0  0  0
   20.7581   -9.1876  -15.3778 C   0  0  2  0  0  0  0  0  0  0  0  0
   21.3897   -9.8703  -16.4901 N   0  0  0  0  0  0  0  0  0  0  0  0
   20.0001   -8.0117  -15.8742 C   0  0  0  0  0  0  0  0  0  0  0  0
   20.2847   -7.4939  -16.9797 O   0  0  0  0  0  0  0  0  0  0  0  0
   18.9356   -7.4201  -15.1444 N   0  0  0  0  0  0  0  0  0  0  0  0
   18.2442   -6.2058  -15.6109 C   0  0  1  0  0  0  0  0  0  0  0  0
   16.7602   -6.4372  -15.4759 C   0  0  0  0  0  0  0  0  0  0  0  0
   15.9057   -5.2684  -15.8077 C   0  0  0  0  0  0  0  0  0  0  0  0
   14.4263   -5.5660  -15.6723 C   0  0  0  0  0  0  0  0  0  0  0  0
   13.5857   -4.3745  -16.0647 C   0  0  0  0  0  0  0  0  0  0  0  0
   12.1966   -4.7866  -15.9281 N   0  0  0  0  0  0  0  0  0  0  0  0
   18.7165   -5.0239  -14.8818 C   0  0  0  0  0  0  0  0  0  0  0  0
   19.1491   -5.1244  -13.7240 O   0  0  0  0  0  0  0  0  0  0  0  0
   18.6780   -3.7862  -15.4935 O   0  0  0  0  0  0  0  0  0  0  0  0
  2  1  1  1
  2  7  1  0
  3  2  1  0
  4  3  1  0
  5  4  1  0
  6  5  2  0
  7  8  2  0
  9  5  1  0
 11 12  1  0
 11 10  1  6
 13 11  1  0
 14  7  1  0
 13 14  1  6
 15 13  1  0
 15 16  2  0
 17 15  1  0
 18 17  1  0
 18 19  1  1
 20 19  1  0
 21 20  1  0
 22 21  1  0
 23 22  1  0
 24 18  1  0
 25 24  2  0
 26 24  1  0
M  END
$$$$
