WGW.pdb
     RDKit          3D

 33 36  0  0  1  0  0  0  0  0999 V2000
    8.5005  -18.1385   23.0151 N   0  0  0  0  0  0  0  0  0  0  0  0
    8.9219  -16.8096   22.7195 C   0  0  1  0  0  0  0  0  0  0  0  0
    8.0157  -15.7141   23.1644 C   0  0  0  0  0  0  0  0  0  0  0  0
    7.1708  -15.1176   22.1210 C   0  0  0  0  0  0  0  0  0  0  0  0
    5.8523  -15.4239   21.8164 C   0  0  0  0  0  0  0  0  0  0  0  0
    5.4244  -14.6820   20.7895 N   0  0  0  0  0  0  0  0  0  0  0  0
    6.4640  -13.8921   20.4250 C   0  0  0  0  0  0  0  0  0  0  0  0
    6.5343  -12.9318   19.4062 C   0  0  0  0  0  0  0  0  0  0  0  0
    7.7047  -12.2313   19.2112 C   0  0  0  0  0  0  0  0  0  0  0  0
    8.8058  -12.4834   20.0278 C   0  0  0  0  0  0  0  0  0  0  0  0
    8.7335  -13.4279   21.0285 C   0  0  0  0  0  0  0  0  0  0  0  0
    7.5518  -14.1404   21.2295 C   0  0  0  0  0  0  0  0  0  0  0  0
   10.3318  -16.6348   23.1501 C   0  0  0  0  0  0  0  0  0  0  0  0
   10.9837  -15.6745   22.7261 O   0  0  0  0  0  0  0  0  0  0  0  0
   10.9244  -17.5654   24.0432 N   0  0  0  0  0  0  0  0  0  0  0  0
   12.3278  -17.3621   24.3933 C   0  0  0  0  0  0  0  0  0  0  0  0
   12.3780  -16.8441   25.7625 C   0  0  0  0  0  0  0  0  0  0  0  0
   13.4752  -16.5118   26.3321 O   0  0  0  0  0  0  0  0  0  0  0  0
   11.2099  -16.6761   26.5507 N   0  0  0  0  0  0  0  0  0  0  0  0
   11.2625  -16.2571   27.9543 C   0  0  1  0  0  0  0  0  0  0  0  0
   10.4781  -15.0242   28.1766 C   0  0  0  0  0  0  0  0  0  0  0  0
    9.1187  -15.1045   27.6215 C   0  0  0  0  0  0  0  0  0  0  0  0
    8.3740  -16.2829   27.4177 C   0  0  0  0  0  0  0  0  0  0  0  0
    7.2038  -15.9765   26.8525 N   0  0  0  0  0  0  0  0  0  0  0  0
    7.1044  -14.6295   26.6560 C   0  0  0  0  0  0  0  0  0  0  0  0
    6.1051  -13.8373   26.1360 C   0  0  0  0  0  0  0  0  0  0  0  0
    6.2590  -12.4805   26.0786 C   0  0  0  0  0  0  0  0  0  0  0  0
    7.4219  -11.9190   26.5459 C   0  0  0  0  0  0  0  0  0  0  0  0
    8.4091  -12.7248   27.0606 C   0  0  0  0  0  0  0  0  0  0  0  0
    8.2898  -14.1142   27.1353 C   0  0  0  0  0  0  0  0  0  0  0  0
   10.8501  -17.3789   28.7834 C   0  0  0  0  0  0  0  0  0  0  0  0
   10.8175  -17.4268   30.0365 O   0  0  0  0  0  0  0  0  0  0  0  0
   10.4318  -18.5674   28.1502 O   0  0  0  0  0  0  0  0  0  0  0  0
  2  1  1  1
  2 13  1  0
  3  4  1  0
  3  2  1  0
  4  5  2  0
  6  5  1  0
  7  6  1  0
  8  7  2  0
  9  8  1  0
 10  9  2  0
 10 11  1  0
 11 12  2  0
 12  7  1  0
 12  4  1  0
 13 15  1  0
 14 13  2  0
 15 16  1  0
 17 18  2  0
 17 16  1  0
 19 17  1  0
 20 21  1  6
 20 19  1  0
 22 21  1  0
 23 22  2  0
 24 23  1  0
 25 24  1  0
 25 30  2  0
 26 25  1  0
 27 26  2  0
 27 28  1  0
 28 29  2  0
 29 30  1  0
 30 22  1  0
 31 20  1  0
 31 33  1  0
 32 31  2  0
M  END
$$$$
