WGW.pdb
     RDKit          3D

 33 36  0  0  1  0  0  0  0  0999 V2000
    9.2082  -17.6157   22.5461 N   0  0  0  0  0  0  0  0  0  0  0  0
    9.6100  -16.2505   22.6221 C   0  0  1  0  0  0  0  0  0  0  0  0
    8.5466  -15.2665   22.9691 C   0  0  0  0  0  0  0  0  0  0  0  0
    7.6179  -14.9175   21.8856 C   0  0  0  0  0  0  0  0  0  0  0  0
    6.2701  -15.2318   21.7868 C   0  0  0  0  0  0  0  0  0  0  0  0
    5.7610  -14.7568   20.6452 N   0  0  0  0  0  0  0  0  0  0  0  0
    6.7769  -14.1329   20.0002 C   0  0  0  0  0  0  0  0  0  0  0  0
    6.7689  -13.4671   18.7664 C   0  0  0  0  0  0  0  0  0  0  0  0
    7.9295  -12.8923   18.2961 C   0  0  0  0  0  0  0  0  0  0  0  0
    9.0985  -12.9777   19.0503 C   0  0  0  0  0  0  0  0  0  0  0  0
    9.1031  -13.6327   20.2626 C   0  0  0  0  0  0  0  0  0  0  0  0
    7.9317  -14.2170   20.7429 C   0  0  0  0  0  0  0  0  0  0  0  0
   10.8261  -16.1432   23.4665 C   0  0  0  0  0  0  0  0  0  0  0  0
   11.4300  -15.0670   23.5312 O   0  0  0  0  0  0  0  0  0  0  0  0
   11.2898  -17.2704   24.1942 N   0  0  0  0  0  0  0  0  0  0  0  0
   12.6042  -17.1711   24.8232 C   0  0  0  0  0  0  0  0  0  0  0  0
   12.4013  -16.8540   26.2387 C   0  0  0  0  0  0  0  0  0  0  0  0
   13.3753  -16.6883   27.0528 O   0  0  0  0  0  0  0  0  0  0  0  0
   11.1073  -16.7092   26.8031 N   0  0  0  0  0  0  0  0  0  0  0  0
   10.8940  -16.5163   28.2405 C   0  0  1  0  0  0  0  0  0  0  0  0
   10.2377  -15.2211   28.5170 C   0  0  0  0  0  0  0  0  0  0  0  0
    8.9754  -15.0522   27.7818 C   0  0  0  0  0  0  0  0  0  0  0  0
    8.1428  -16.0878   27.3138 C   0  0  0  0  0  0  0  0  0  0  0  0
    7.1109  -15.5620   26.6495 N   0  0  0  0  0  0  0  0  0  0  0  0
    7.1922  -14.1997   26.6379 C   0  0  0  0  0  0  0  0  0  0  0  0
    6.3755  -13.2243   26.1104 C   0  0  0  0  0  0  0  0  0  0  0  0
    6.6861  -11.9029   26.2702 C   0  0  0  0  0  0  0  0  0  0  0  0
    7.8219  -11.5619   26.9627 C   0  0  0  0  0  0  0  0  0  0  0  0
    8.6260  -12.5484   27.4814 C   0  0  0  0  0  0  0  0  0  0  0  0
    8.3432  -13.9085   27.3385 C   0  0  0  0  0  0  0  0  0  0  0  0
   10.1706  -17.6686   28.7552 C   0  0  0  0  0  0  0  0  0  0  0  0
    9.8310  -17.8846   29.9434 O   0  0  0  0  0  0  0  0  0  0  0  0
    9.7874  -18.6823   27.8530 O   0  0  0  0  0  0  0  0  0  0  0  0
  2  1  1  1
  2 13  1  0
  3  4  1  0
  3  2  1  0
  4  5  2  0
  6  5  1  0
  7  6  1  0
  8  7  2  0
  9  8  1  0
 10  9  2  0
 10 11  1  0
 11 12  2  0
 12  7  1  0
 12  4  1  0
 13 15  1  0
 14 13  2  0
 15 16  1  0
 17 18  2  0
 17 16  1  0
 19 17  1  0
 20 21  1  6
 20 19  1  0
 22 21  1  0
 23 22  2  0
 24 23  1  0
 25 24  1  0
 25 30  2  0
 26 25  1  0
 27 26  2  0
 27 28  1  0
 28 29  2  0
 29 30  1  0
 30 22  1  0
 31 20  1  0
 31 33  1  0
 32 31  2  0
M  END
$$$$
