WGW.pdb
     RDKit          3D

 33 36  0  0  1  0  0  0  0  0999 V2000
    7.5520  -17.8734   25.8364 N   0  0  0  0  0  0  0  0  0  0  0  0
    6.8085  -17.7479   24.6271 C   0  0  1  0  0  0  0  0  0  0  0  0
    5.9532  -16.5348   24.4995 C   0  0  0  0  0  0  0  0  0  0  0  0
    6.6670  -15.2630   24.3230 C   0  0  0  0  0  0  0  0  0  0  0  0
    7.4168  -14.8534   23.2297 C   0  0  0  0  0  0  0  0  0  0  0  0
    7.9298  -13.6371   23.4430 N   0  0  0  0  0  0  0  0  0  0  0  0
    7.5143  -13.2540   24.6751 C   0  0  0  0  0  0  0  0  0  0  0  0
    7.7720  -12.0629   25.3681 C   0  0  0  0  0  0  0  0  0  0  0  0
    7.2380  -11.8778   26.6246 C   0  0  0  0  0  0  0  0  0  0  0  0
    6.4474  -12.8747   27.1938 C   0  0  0  0  0  0  0  0  0  0  0  0
    6.1958  -14.0443   26.5101 C   0  0  0  0  0  0  0  0  0  0  0  0
    6.7346  -14.2373   25.2386 C   0  0  0  0  0  0  0  0  0  0  0  0
    7.7120  -17.9700   23.4703 C   0  0  0  0  0  0  0  0  0  0  0  0
    7.2402  -18.0182   22.3292 O   0  0  0  0  0  0  0  0  0  0  0  0
    9.1079  -18.1250   23.6763 N   0  0  0  0  0  0  0  0  0  0  0  0
    9.9563  -18.2207   22.4912 C   0  0  0  0  0  0  0  0  0  0  0  0
   11.3063  -17.7980   22.8708 C   0  0  0  0  0  0  0  0  0  0  0  0
   12.3027  -17.8792   22.0710 O   0  0  0  0  0  0  0  0  0  0  0  0
   11.6001  -17.2688   24.1544 N   0  0  0  0  0  0  0  0  0  0  0  0
   12.9403  -16.8057   24.5256 C   0  0  1  0  0  0  0  0  0  0  0  0
   12.8792  -15.5442   25.2936 C   0  0  0  0  0  0  0  0  0  0  0  0
   12.1246  -15.6759   26.5488 C   0  0  0  0  0  0  0  0  0  0  0  0
   12.2842  -16.6936   27.5099 C   0  0  0  0  0  0  0  0  0  0  0  0
   11.3975  -16.5191   28.4928 N   0  0  0  0  0  0  0  0  0  0  0  0
   10.6273  -15.4179   28.2537 C   0  0  0  0  0  0  0  0  0  0  0  0
    9.6105  -14.8223   28.9665 C   0  0  0  0  0  0  0  0  0  0  0  0
    9.0144  -13.6846   28.4995 C   0  0  0  0  0  0  0  0  0  0  0  0
    9.4425  -13.1445   27.3116 C   0  0  0  0  0  0  0  0  0  0  0  0
   10.4577  -13.7528   26.6129 C   0  0  0  0  0  0  0  0  0  0  0  0
   11.0907  -14.9160   27.0564 C   0  0  0  0  0  0  0  0  0  0  0  0
   13.6239  -17.8875   25.2173 C   0  0  0  0  0  0  0  0  0  0  0  0
   13.1412  -18.9912   25.5673 O   0  0  0  0  0  0  0  0  0  0  0  0
   14.9835  -17.7210   25.5521 O   0  0  0  0  0  0  0  0  0  0  0  0
  2  1  1  1
  2 13  1  0
  3  4  1  0
  3  2  1  0
  4  5  2  0
  6  5  1  0
  7  6  1  0
  8  7  2  0
  9  8  1  0
 10  9  2  0
 10 11  1  0
 11 12  2  0
 12  7  1  0
 12  4  1  0
 13 15  1  0
 14 13  2  0
 15 16  1  0
 17 18  2  0
 17 16  1  0
 19 17  1  0
 20 21  1  1
 20 19  1  0
 22 21  1  0
 23 22  2  0
 24 23  1  0
 25 24  1  0
 25 30  2  0
 26 25  1  0
 27 26  2  0
 27 28  1  0
 28 29  2  0
 29 30  1  0
 30 22  1  0
 31 20  1  0
 31 33  1  0
 32 31  2  0
M  END
$$$$
