WGW.pdb
     RDKit          3D

 33 36  0  0  1  0  0  0  0  0999 V2000
    6.1858  -18.3770   25.2017 N   0  0  0  0  0  0  0  0  0  0  0  0
    6.7014  -17.6856   24.0672 C   0  0  1  0  0  0  0  0  0  0  0  0
    7.4799  -16.4464   24.3456 C   0  0  0  0  0  0  0  0  0  0  0  0
    6.8518  -15.4876   25.2646 C   0  0  0  0  0  0  0  0  0  0  0  0
    5.6307  -15.6061   25.9126 C   0  0  0  0  0  0  0  0  0  0  0  0
    5.3876  -14.5209   26.6552 N   0  0  0  0  0  0  0  0  0  0  0  0
    6.4502  -13.6955   26.4913 C   0  0  0  0  0  0  0  0  0  0  0  0
    6.6896  -12.4342   27.0545 C   0  0  0  0  0  0  0  0  0  0  0  0
    7.8543  -11.7636   26.7511 C   0  0  0  0  0  0  0  0  0  0  0  0
    8.7825  -12.3449   25.8887 C   0  0  0  0  0  0  0  0  0  0  0  0
    8.5444  -13.5848   25.3369 C   0  0  0  0  0  0  0  0  0  0  0  0
    7.3667  -14.2674   25.6397 C   0  0  0  0  0  0  0  0  0  0  0  0
    7.4026  -18.6493   23.1822 C   0  0  0  0  0  0  0  0  0  0  0  0
    6.8905  -19.7503   22.9534 O   0  0  0  0  0  0  0  0  0  0  0  0
    8.6526  -18.3057   22.6037 N   0  0  0  0  0  0  0  0  0  0  0  0
    8.7545  -18.3488   21.1473 C   0  0  0  0  0  0  0  0  0  0  0  0
   10.0770  -17.8411   20.7750 C   0  0  0  0  0  0  0  0  0  0  0  0
   10.4892  -17.8197   19.5632 O   0  0  0  0  0  0  0  0  0  0  0  0
   10.9918  -17.3380   21.7362 N   0  0  0  0  0  0  0  0  0  0  0  0
   12.1756  -16.5588   21.3619 C   0  0  1  0  0  0  0  0  0  0  0  0
   11.8133  -15.4087   20.5069 C   0  0  0  0  0  0  0  0  0  0  0  0
   10.5432  -14.7815   20.9017 C   0  0  0  0  0  0  0  0  0  0  0  0
   10.0167  -14.7241   22.2071 C   0  0  0  0  0  0  0  0  0  0  0  0
    8.8250  -14.1225   22.1792 N   0  0  0  0  0  0  0  0  0  0  0  0
    8.5020  -13.7576   20.9044 C   0  0  0  0  0  0  0  0  0  0  0  0
    7.4126  -13.1042   20.3724 C   0  0  0  0  0  0  0  0  0  0  0  0
    7.3544  -12.8359   19.0336 C   0  0  0  0  0  0  0  0  0  0  0  0
    8.3954  -13.2261   18.2274 C   0  0  0  0  0  0  0  0  0  0  0  0
    9.4743  -13.8781   18.7751 C   0  0  0  0  0  0  0  0  0  0  0  0
    9.5701  -14.1711   20.1372 C   0  0  0  0  0  0  0  0  0  0  0  0
   12.8864  -16.1926   22.5771 C   0  0  0  0  0  0  0  0  0  0  0  0
   13.6392  -15.2039   22.7491 O   0  0  0  0  0  0  0  0  0  0  0  0
   12.7427  -17.0123   23.7154 O   0  0  0  0  0  0  0  0  0  0  0  0
  2  1  1  1
  2 13  1  0
  3  4  1  0
  3  2  1  0
  4  5  2  0
  6  5  1  0
  7  6  1  0
  8  7  2  0
  9  8  1  0
 10  9  2  0
 10 11  1  0
 11 12  2  0
 12  7  1  0
 12  4  1  0
 13 15  1  0
 14 13  2  0
 15 16  1  0
 17 18  2  0
 17 16  1  0
 19 17  1  0
 20 21  1  1
 20 19  1  0
 22 21  1  0
 23 22  2  0
 24 23  1  0
 25 24  1  0
 25 30  2  0
 26 25  1  0
 27 26  2  0
 27 28  1  0
 28 29  2  0
 29 30  1  0
 30 22  1  0
 31 20  1  0
 31 33  1  0
 32 31  2  0
M  END
$$$$
