WGW.pdb
     RDKit          3D

 33 36  0  0  1  0  0  0  0  0999 V2000
    7.8540  -18.2125   19.5007 N   0  0  0  0  0  0  0  0  0  0  0  0
    8.9731  -17.9821   20.3525 C   0  0  1  0  0  0  0  0  0  0  0  0
    9.4458  -16.5732   20.4568 C   0  0  0  0  0  0  0  0  0  0  0  0
    8.4776  -15.6108   20.9995 C   0  0  0  0  0  0  0  0  0  0  0  0
    7.5946  -15.7958   22.0537 C   0  0  0  0  0  0  0  0  0  0  0  0
    6.8577  -14.6966   22.2456 N   0  0  0  0  0  0  0  0  0  0  0  0
    7.2605  -13.7953   21.3167 C   0  0  0  0  0  0  0  0  0  0  0  0
    6.8074  -12.4874   21.0941 C   0  0  0  0  0  0  0  0  0  0  0  0
    7.3680  -11.7359   20.0844 C   0  0  0  0  0  0  0  0  0  0  0  0
    8.3790  -12.2822   19.2954 C   0  0  0  0  0  0  0  0  0  0  0  0
    8.8222  -13.5679   19.5168 C   0  0  0  0  0  0  0  0  0  0  0  0
    8.2576  -14.3332   20.5366 C   0  0  0  0  0  0  0  0  0  0  0  0
    8.7333  -18.6337   21.6646 C   0  0  0  0  0  0  0  0  0  0  0  0
    7.5742  -18.8032   22.0579 O   0  0  0  0  0  0  0  0  0  0  0  0
    9.8297  -19.0588   22.4598 N   0  0  0  0  0  0  0  0  0  0  0  0
    9.5600  -19.3875   23.8571 C   0  0  0  0  0  0  0  0  0  0  0  0
    9.6898  -18.1567   24.6405 C   0  0  0  0  0  0  0  0  0  0  0  0
    8.6977  -17.6179   25.2441 O   0  0  0  0  0  0  0  0  0  0  0  0
   10.9279  -17.4778   24.7825 N   0  0  0  0  0  0  0  0  0  0  0  0
   11.0380  -16.1740   25.4432 C   0  0  1  0  0  0  0  0  0  0  0  0
   10.4938  -16.2202   26.8167 C   0  0  0  0  0  0  0  0  0  0  0  0
    9.0989  -15.7614   26.8940 C   0  0  0  0  0  0  0  0  0  0  0  0
    7.9570  -16.5842   26.9541 C   0  0  0  0  0  0  0  0  0  0  0  0
    6.8607  -15.8221   26.9660 N   0  0  0  0  0  0  0  0  0  0  0  0
    7.1955  -14.4998   26.9177 C   0  0  0  0  0  0  0  0  0  0  0  0
    6.4396  -13.3486   26.9281 C   0  0  0  0  0  0  0  0  0  0  0  0
    7.0459  -12.1242   26.8973 C   0  0  0  0  0  0  0  0  0  0  0  0
    8.4170  -12.0577   26.8558 C   0  0  0  0  0  0  0  0  0  0  0  0
    9.1556  -13.2166   26.8450 C   0  0  0  0  0  0  0  0  0  0  0  0
    8.5733  -14.4856   26.8745 C   0  0  0  0  0  0  0  0  0  0  0  0
   12.4239  -15.7384   25.3696 C   0  0  0  0  0  0  0  0  0  0  0  0
   13.4104  -16.4045   24.9735 O   0  0  0  0  0  0  0  0  0  0  0  0
   12.7412  -14.4270   25.7794 O   0  0  0  0  0  0  0  0  0  0  0  0
  2  1  1  6
  2 13  1  0
  3  4  1  0
  3  2  1  0
  4  5  2  0
  6  5  1  0
  7  6  1  0
  8  7  2  0
  9  8  1  0
 10  9  2  0
 10 11  1  0
 11 12  2  0
 12  7  1  0
 12  4  1  0
 13 15  1  0
 14 13  2  0
 15 16  1  0
 17 18  2  0
 17 16  1  0
 19 17  1  0
 20 21  1  1
 20 19  1  0
 22 21  1  0
 23 22  2  0
 24 23  1  0
 25 24  1  0
 25 30  2  0
 26 25  1  0
 27 26  2  0
 27 28  1  0
 28 29  2  0
 29 30  1  0
 30 22  1  0
 31 20  1  0
 31 33  1  0
 32 31  2  0
M  END
$$$$
