WGW.pdb
     RDKit          3D

 33 36  0  0  1  0  0  0  0  0999 V2000
    8.1228  -17.2442   24.0039 N   0  0  0  0  0  0  0  0  0  0  0  0
    8.0898  -16.4112   22.8481 C   0  0  1  0  0  0  0  0  0  0  0  0
    7.7460  -14.9795   23.0744 C   0  0  0  0  0  0  0  0  0  0  0  0
    6.8349  -14.7084   24.1945 C   0  0  0  0  0  0  0  0  0  0  0  0
    6.0425  -15.6146   24.8844 C   0  0  0  0  0  0  0  0  0  0  0  0
    5.3334  -14.9908   25.8311 N   0  0  0  0  0  0  0  0  0  0  0  0
    5.6638  -13.6782   25.7582 C   0  0  0  0  0  0  0  0  0  0  0  0
    5.2043  -12.6031   26.5317 C   0  0  0  0  0  0  0  0  0  0  0  0
    5.6838  -11.3348   26.2867 C   0  0  0  0  0  0  0  0  0  0  0  0
    6.6201  -11.1332   25.2740 C   0  0  0  0  0  0  0  0  0  0  0  0
    7.0699  -12.1920   24.5156 C   0  0  0  0  0  0  0  0  0  0  0  0
    6.5871  -13.4774   24.7586 C   0  0  0  0  0  0  0  0  0  0  0  0
    9.3327  -16.6133   22.0620 C   0  0  0  0  0  0  0  0  0  0  0  0
   10.2155  -15.7490   22.0850 O   0  0  0  0  0  0  0  0  0  0  0  0
    9.5038  -17.7926   21.2905 N   0  0  0  0  0  0  0  0  0  0  0  0
   10.6021  -18.6829   21.6569 C   0  0  0  0  0  0  0  0  0  0  0  0
   11.7524  -17.8512   22.0180 C   0  0  0  0  0  0  0  0  0  0  0  0
   12.4683  -17.2504   21.1430 O   0  0  0  0  0  0  0  0  0  0  0  0
   12.1507  -17.6557   23.3660 N   0  0  0  0  0  0  0  0  0  0  0  0
   13.2579  -16.7700   23.7377 C   0  0  1  0  0  0  0  0  0  0  0  0
   12.7774  -15.6042   24.5090 C   0  0  0  0  0  0  0  0  0  0  0  0
   12.1369  -15.9833   25.7772 C   0  0  0  0  0  0  0  0  0  0  0  0
   11.9912  -17.2935   26.2739 C   0  0  0  0  0  0  0  0  0  0  0  0
   11.3182  -17.2592   27.4266 N   0  0  0  0  0  0  0  0  0  0  0  0
   10.9906  -15.9749   27.7524 C   0  0  0  0  0  0  0  0  0  0  0  0
   10.3293  -15.4291   28.8301 C   0  0  0  0  0  0  0  0  0  0  0  0
   10.1571  -14.0764   28.9217 C   0  0  0  0  0  0  0  0  0  0  0  0
   10.6516  -13.2703   27.9259 C   0  0  0  0  0  0  0  0  0  0  0  0
   11.3080  -13.8320   26.8571 C   0  0  0  0  0  0  0  0  0  0  0  0
   11.5030  -15.2088   26.7271 C   0  0  0  0  0  0  0  0  0  0  0  0
   14.2662  -17.5607   24.4262 C   0  0  0  0  0  0  0  0  0  0  0  0
   15.3758  -17.1674   24.8596 O   0  0  0  0  0  0  0  0  0  0  0  0
   14.0107  -18.9286   24.6541 O   0  0  0  0  0  0  0  0  0  0  0  0
  2  1  1  1
  2 13  1  0
  3  4  1  0
  3  2  1  0
  4  5  2  0
  6  5  1  0
  7  6  1  0
  8  7  2  0
  9  8  1  0
 10  9  2  0
 10 11  1  0
 11 12  2  0
 12  7  1  0
 12  4  1  0
 13 15  1  0
 14 13  2  0
 15 16  1  0
 17 18  2  0
 17 16  1  0
 19 17  1  0
 20 21  1  1
 20 19  1  0
 22 21  1  0
 23 22  2  0
 24 23  1  0
 25 24  1  0
 25 30  2  0
 26 25  1  0
 27 26  2  0
 27 28  1  0
 28 29  2  0
 29 30  1  0
 30 22  1  0
 31 20  1  0
 31 33  1  0
 32 31  2  0
M  END
$$$$
