WGW.pdb
     RDKit          3D

 33 36  0  0  1  0  0  0  0  0999 V2000
   10.0949  -16.3372   21.1779 N   0  0  0  0  0  0  0  0  0  0  0  0
    9.0436  -16.0680   22.1016 C   0  0  1  0  0  0  0  0  0  0  0  0
    7.6564  -16.1350   21.5625 C   0  0  0  0  0  0  0  0  0  0  0  0
    7.4110  -15.3766   20.3284 C   0  0  0  0  0  0  0  0  0  0  0  0
    6.9971  -15.8660   19.0979 C   0  0  0  0  0  0  0  0  0  0  0  0
    6.8997  -14.8729   18.2078 N   0  0  0  0  0  0  0  0  0  0  0  0
    7.2498  -13.7364   18.8582 C   0  0  0  0  0  0  0  0  0  0  0  0
    7.3097  -12.4210   18.3772 C   0  0  0  0  0  0  0  0  0  0  0  0
    7.6916  -11.4036   19.2243 C   0  0  0  0  0  0  0  0  0  0  0  0
    8.0138  -11.6913   20.5495 C   0  0  0  0  0  0  0  0  0  0  0  0
    7.9539  -12.9853   21.0194 C   0  0  0  0  0  0  0  0  0  0  0  0
    7.5691  -14.0188   20.1661 C   0  0  0  0  0  0  0  0  0  0  0  0
    9.2504  -16.8763   23.3294 C   0  0  0  0  0  0  0  0  0  0  0  0
    8.3545  -16.9344   24.1786 O   0  0  0  0  0  0  0  0  0  0  0  0
   10.4694  -17.5770   23.5240 N   0  0  0  0  0  0  0  0  0  0  0  0
   10.6166  -18.3405   24.7605 C   0  0  0  0  0  0  0  0  0  0  0  0
   11.0597  -17.4173   25.8077 C   0  0  0  0  0  0  0  0  0  0  0  0
   12.1837  -16.8066   25.7556 O   0  0  0  0  0  0  0  0  0  0  0  0
   10.2698  -17.1378   26.9531 N   0  0  0  0  0  0  0  0  0  0  0  0
   10.8144  -16.4717   28.1398 C   0  0  1  0  0  0  0  0  0  0  0  0
   10.0506  -15.2494   28.4677 C   0  0  0  0  0  0  0  0  0  0  0  0
    8.7811  -15.1548   27.7317 C   0  0  0  0  0  0  0  0  0  0  0  0
    7.9234  -16.2269   27.4156 C   0  0  0  0  0  0  0  0  0  0  0  0
    6.8916  -15.7738   26.6996 N   0  0  0  0  0  0  0  0  0  0  0  0
    6.9970  -14.4268   26.5060 C   0  0  0  0  0  0  0  0  0  0  0  0
    6.1904  -13.5143   25.8632 C   0  0  0  0  0  0  0  0  0  0  0  0
    6.5269  -12.1898   25.8420 C   0  0  0  0  0  0  0  0  0  0  0  0
    7.6785  -11.7822   26.4694 C   0  0  0  0  0  0  0  0  0  0  0  0
    8.4722  -12.7067   27.1052 C   0  0  0  0  0  0  0  0  0  0  0  0
    8.1631  -14.0680   27.1478 C   0  0  0  0  0  0  0  0  0  0  0  0
   10.8741  -17.4411   29.2227 C   0  0  0  0  0  0  0  0  0  0  0  0
   10.4154  -18.6087   29.2242 O   0  0  0  0  0  0  0  0  0  0  0  0
   11.5100  -17.0703   30.4254 O   0  0  0  0  0  0  0  0  0  0  0  0
  2  1  1  6
  2 13  1  0
  3  4  1  0
  3  2  1  0
  4  5  2  0
  6  5  1  0
  7  6  1  0
  8  7  2  0
  9  8  1  0
 10  9  2  0
 10 11  1  0
 11 12  2  0
 12  7  1  0
 12  4  1  0
 13 15  1  0
 14 13  2  0
 15 16  1  0
 17 18  2  0
 17 16  1  0
 19 17  1  0
 20 21  1  1
 20 19  1  0
 22 21  1  0
 23 22  2  0
 24 23  1  0
 25 24  1  0
 25 30  2  0
 26 25  1  0
 27 26  2  0
 27 28  1  0
 28 29  2  0
 29 30  1  0
 30 22  1  0
 31 20  1  0
 31 33  1  0
 32 31  2  0
M  END
$$$$
