WGW.pdb
     RDKit          3D

 33 36  0  0  1  0  0  0  0  0999 V2000
    8.9689  -17.6995   22.4055 N   0  0  0  0  0  0  0  0  0  0  0  0
    9.6329  -16.4512   22.5837 C   0  0  1  0  0  0  0  0  0  0  0  0
    8.8000  -15.3261   23.0936 C   0  0  0  0  0  0  0  0  0  0  0  0
    7.7974  -14.7963   22.1596 C   0  0  0  0  0  0  0  0  0  0  0  0
    6.4434  -15.0949   22.1065 C   0  0  0  0  0  0  0  0  0  0  0  0
    5.8560  -14.4288   21.1068 N   0  0  0  0  0  0  0  0  0  0  0  0
    6.8270  -13.6961   20.5087 C   0  0  0  0  0  0  0  0  0  0  0  0
    6.7341  -12.8235   19.4153 C   0  0  0  0  0  0  0  0  0  0  0  0
    7.8618  -12.1693   18.9694 C   0  0  0  0  0  0  0  0  0  0  0  0
    9.0822  -12.3805   19.6089 C   0  0  0  0  0  0  0  0  0  0  0  0
    9.1702  -13.2386   20.6833 C   0  0  0  0  0  0  0  0  0  0  0  0
    8.0324  -13.9041   21.1381 C   0  0  0  0  0  0  0  0  0  0  0  0
   10.8854  -16.6668   23.3508 C   0  0  0  0  0  0  0  0  0  0  0  0
   11.6944  -15.7403   23.4693 O   0  0  0  0  0  0  0  0  0  0  0  0
   11.1492  -17.9293   23.9436 N   0  0  0  0  0  0  0  0  0  0  0  0
   12.4329  -18.1005   24.6191 C   0  0  0  0  0  0  0  0  0  0  0  0
   12.2827  -17.6226   25.9955 C   0  0  0  0  0  0  0  0  0  0  0  0
   13.2861  -17.3815   26.7530 O   0  0  0  0  0  0  0  0  0  0  0  0
   11.0108  -17.3946   26.5822 N   0  0  0  0  0  0  0  0  0  0  0  0
   10.8549  -16.9069   27.9557 C   0  0  1  0  0  0  0  0  0  0  0  0
   10.3948  -15.5024   27.9780 C   0  0  0  0  0  0  0  0  0  0  0  0
    9.1543  -15.2958   27.2159 C   0  0  0  0  0  0  0  0  0  0  0  0
    8.2857  -16.3048   26.7554 C   0  0  0  0  0  0  0  0  0  0  0  0
    7.2895  -15.7501   26.0606 N   0  0  0  0  0  0  0  0  0  0  0  0
    7.4304  -14.3931   26.0206 C   0  0  0  0  0  0  0  0  0  0  0  0
    6.6666  -13.3955   25.4567 C   0  0  0  0  0  0  0  0  0  0  0  0
    7.0318  -12.0856   25.5931 C   0  0  0  0  0  0  0  0  0  0  0  0
    8.1690  -11.7784   26.2989 C   0  0  0  0  0  0  0  0  0  0  0  0
    8.9200  -12.7867   26.8541 C   0  0  0  0  0  0  0  0  0  0  0  0
    8.5806  -14.1362   26.7359 C   0  0  0  0  0  0  0  0  0  0  0  0
    9.9852  -17.8264   28.6727 C   0  0  0  0  0  0  0  0  0  0  0  0
    9.3183  -18.7738   28.1915 O   0  0  0  0  0  0  0  0  0  0  0  0
    9.8455  -17.6735   30.0674 O   0  0  0  0  0  0  0  0  0  0  0  0
  2  1  1  1
  2 13  1  0
  3  4  1  0
  3  2  1  0
  4  5  2  0
  6  5  1  0
  7  6  1  0
  8  7  2  0
  9  8  1  0
 10  9  2  0
 10 11  1  0
 11 12  2  0
 12  7  1  0
 12  4  1  0
 13 15  1  0
 14 13  2  0
 15 16  1  0
 17 18  2  0
 17 16  1  0
 19 17  1  0
 20 21  1  6
 20 19  1  0
 22 21  1  0
 23 22  2  0
 24 23  1  0
 25 24  1  0
 25 30  2  0
 26 25  1  0
 27 26  2  0
 27 28  1  0
 28 29  2  0
 29 30  1  0
 30 22  1  0
 31 20  1  0
 31 33  1  0
 32 31  2  0
M  END
$$$$
