VWA.pdb
     RDKit          3D

 27 28  0  0  1  0  0  0  0  0999 V2000
   28.9495  -18.4516  -14.2234 C   0  0  0  0  0  0  0  0  0  0  0  0
   27.9414  -19.1404  -13.3658 C   0  0  1  0  0  0  0  0  0  0  0  0
   26.9243  -19.9566  -14.0773 C   0  0  0  0  0  0  0  0  0  0  0  0
   28.5391  -19.9218  -12.2157 C   0  0  2  0  0  0  0  0  0  0  0  0
   29.2933  -21.0795  -12.7480 N   0  0  0  0  0  0  0  0  0  0  0  0
   27.5220  -20.5070  -11.3086 C   0  0  0  0  0  0  0  0  0  0  0  0
   27.2555  -21.7546  -11.3621 O   0  0  0  0  0  0  0  0  0  0  0  0
   26.7766  -19.8053  -10.3413 N   0  0  0  0  0  0  0  0  0  0  0  0
   25.7211  -20.4551   -9.5341 C   0  0  1  0  0  0  0  0  0  0  0  0
   25.6166  -19.6199   -8.3118 C   0  0  0  0  0  0  0  0  0  0  0  0
   26.8189  -19.3501   -7.5382 C   0  0  0  0  0  0  0  0  0  0  0  0
   27.6719  -18.2598   -7.5929 C   0  0  0  0  0  0  0  0  0  0  0  0
   28.6453  -18.4788   -6.7259 N   0  0  0  0  0  0  0  0  0  0  0  0
   28.4819  -19.6608   -6.0959 C   0  0  0  0  0  0  0  0  0  0  0  0
   29.2013  -20.3247   -5.1132 C   0  0  0  0  0  0  0  0  0  0  0  0
   28.7704  -21.5400   -4.6381 C   0  0  0  0  0  0  0  0  0  0  0  0
   27.6167  -22.1239   -5.1269 C   0  0  0  0  0  0  0  0  0  0  0  0
   26.9017  -21.4746   -6.0982 C   0  0  0  0  0  0  0  0  0  0  0  0
   27.3315  -20.2403   -6.5878 C   0  0  0  0  0  0  0  0  0  0  0  0
   24.4436  -20.5571  -10.2379 C   0  0  0  0  0  0  0  0  0  0  0  0
   24.2775  -19.7795  -11.2334 O   0  0  0  0  0  0  0  0  0  0  0  0
   21.7253  -19.8366  -10.7531 C   0  0  0  0  0  0  0  0  0  0  0  0
   22.1010  -21.2874  -10.5910 C   0  0  2  0  0  0  0  0  0  0  0  0
   23.3767  -21.4298   -9.9258 N   0  0  0  0  0  0  0  0  0  0  0  0
   22.1063  -21.9200  -11.9342 C   0  0  0  0  0  0  0  0  0  0  0  0
   23.1339  -22.4365  -12.4312 O   0  0  0  0  0  0  0  0  0  0  0  0
   20.9359  -21.9457  -12.6741 O   0  0  0  0  0  0  0  0  0  0  0  0
  2  4  1  0
  2  1  1  6
  2  3  1  0
  4  5  1  6
  6  4  1  0
  6  7  2  0
  8  6  1  0
  9  8  1  0
  9 10  1  1
 11 19  1  0
 11 10  1  0
 12 11  2  0
 13 12  1  0
 13 14  1  0
 14 15  1  0
 14 19  2  0
 15 16  2  0
 16 17  1  0
 18 17  2  0
 19 18  1  0
 20 24  1  0
 20  9  1  0
 21 20  2  0
 23 22  1  6
 23 24  1  0
 23 25  1  0
 25 27  1  0
 26 25  2  0
M  END
$$$$
