VWA.pdb
     RDKit          3D

 27 28  0  0  1  0  0  0  0  0999 V2000
   27.7548  -22.0326  -18.6908 C   0  0  0  0  0  0  0  0  0  0  0  0
   26.8914  -22.0780  -17.4749 C   0  0  1  0  0  0  0  0  0  0  0  0
   25.5686  -22.7349  -17.6349 C   0  0  0  0  0  0  0  0  0  0  0  0
   27.5936  -22.5933  -16.2372 C   0  0  2  0  0  0  0  0  0  0  0  0
   27.8561  -24.0427  -16.3892 N   0  0  0  0  0  0  0  0  0  0  0  0
   26.7779  -22.4754  -15.0041 C   0  0  0  0  0  0  0  0  0  0  0  0
   26.0977  -23.4719  -14.5861 O   0  0  0  0  0  0  0  0  0  0  0  0
   26.6626  -21.3271  -14.1969 N   0  0  0  0  0  0  0  0  0  0  0  0
   25.7987  -21.2894  -12.9968 C   0  0  1  0  0  0  0  0  0  0  0  0
   26.4058  -20.2483  -12.1306 C   0  0  0  0  0  0  0  0  0  0  0  0
   27.5247  -20.6097  -11.2738 C   0  0  0  0  0  0  0  0  0  0  0  0
   28.7912  -21.0498  -11.6225 C   0  0  0  0  0  0  0  0  0  0  0  0
   29.4478  -21.2861  -10.4999 N   0  0  0  0  0  0  0  0  0  0  0  0
   28.6811  -21.0240   -9.4209 C   0  0  0  0  0  0  0  0  0  0  0  0
   28.9042  -21.0929   -8.0536 C   0  0  0  0  0  0  0  0  0  0  0  0
   27.9154  -20.7340   -7.1694 C   0  0  0  0  0  0  0  0  0  0  0  0
   26.6837  -20.2987   -7.6213 C   0  0  0  0  0  0  0  0  0  0  0  0
   26.4559  -20.2290   -8.9702 C   0  0  0  0  0  0  0  0  0  0  0  0
   27.4534  -20.5922   -9.8763 C   0  0  0  0  0  0  0  0  0  0  0  0
   24.4005  -20.9956  -13.3072 C   0  0  0  0  0  0  0  0  0  0  0  0
   24.1799  -19.9666  -14.0252 O   0  0  0  0  0  0  0  0  0  0  0  0
   20.9332  -22.4014  -13.0971 C   0  0  0  0  0  0  0  0  0  0  0  0
   21.9398  -21.2875  -13.2317 C   0  0  2  0  0  0  0  0  0  0  0  0
   23.2712  -21.7370  -12.8918 N   0  0  0  0  0  0  0  0  0  0  0  0
   21.5031  -20.1585  -12.3720 C   0  0  0  0  0  0  0  0  0  0  0  0
   22.1532  -19.7862  -11.3679 O   0  0  0  0  0  0  0  0  0  0  0  0
   20.3340  -19.4845  -12.6833 O   0  0  0  0  0  0  0  0  0  0  0  0
  2  4  1  0
  2  1  1  6
  2  3  1  0
  4  5  1  6
  6  4  1  0
  6  7  2  0
  8  6  1  0
  9  8  1  0
  9 10  1  1
 11 19  1  0
 11 10  1  0
 12 11  2  0
 13 12  1  0
 13 14  1  0
 14 15  1  0
 14 19  2  0
 15 16  2  0
 16 17  1  0
 18 17  2  0
 19 18  1  0
 20 24  1  0
 20  9  1  0
 21 20  2  0
 23 22  1  1
 23 24  1  0
 23 25  1  0
 25 27  1  0
 26 25  2  0
M  END
$$$$
