VWA.pdb
     RDKit          3D

 27 28  0  0  1  0  0  0  0  0999 V2000
   26.9977  -32.2908  -18.6594 C   0  0  0  0  0  0  0  0  0  0  0  0
   26.2275  -32.4302  -17.3892 C   0  0  1  0  0  0  0  0  0  0  0  0
   26.4933  -33.6561  -16.5932 C   0  0  0  0  0  0  0  0  0  0  0  0
   26.2684  -31.2034  -16.5040 C   0  0  2  0  0  0  0  0  0  0  0  0
   27.6373  -31.0312  -15.9663 N   0  0  0  0  0  0  0  0  0  0  0  0
   25.3945  -31.3081  -15.3102 C   0  0  0  0  0  0  0  0  0  0  0  0
   25.9076  -31.4227  -14.1465 O   0  0  0  0  0  0  0  0  0  0  0  0
   23.9862  -31.2938  -15.3138 N   0  0  0  0  0  0  0  0  0  0  0  0
   23.1924  -31.4230  -14.0724 C   0  0  1  0  0  0  0  0  0  0  0  0
   21.8978  -30.7683  -14.3857 C   0  0  0  0  0  0  0  0  0  0  0  0
   21.8106  -29.3171  -14.3294 C   0  0  0  0  0  0  0  0  0  0  0  0
   22.2575  -28.3748  -15.2412 C   0  0  0  0  0  0  0  0  0  0  0  0
   21.9855  -27.1826  -14.7393 N   0  0  0  0  0  0  0  0  0  0  0  0
   21.3786  -27.2849  -13.5385 C   0  0  0  0  0  0  0  0  0  0  0  0
   20.8890  -26.3528  -12.6354 C   0  0  0  0  0  0  0  0  0  0  0  0
   20.2860  -26.7639  -11.4710 C   0  0  0  0  0  0  0  0  0  0  0  0
   20.1550  -28.1080  -11.1763 C   0  0  0  0  0  0  0  0  0  0  0  0
   20.6369  -29.0341  -12.0631 C   0  0  0  0  0  0  0  0  0  0  0  0
   21.2517  -28.6268  -13.2480 C   0  0  0  0  0  0  0  0  0  0  0  0
   23.0150  -32.8109  -13.6483 C   0  0  0  0  0  0  0  0  0  0  0  0
   22.7902  -33.6637  -14.5678 O   0  0  0  0  0  0  0  0  0  0  0  0
   23.6185  -35.1045  -10.7765 C   0  0  0  0  0  0  0  0  0  0  0  0
   22.9397  -34.7176  -12.0656 C   0  0  2  0  0  0  0  0  0  0  0  0
   23.0680  -33.3008  -12.3237 N   0  0  0  0  0  0  0  0  0  0  0  0
   21.5175  -35.1368  -11.9872 C   0  0  0  0  0  0  0  0  0  0  0  0
   21.1757  -36.3286  -11.8079 O   0  0  0  0  0  0  0  0  0  0  0  0
   20.5230  -34.1815  -12.1157 O   0  0  0  0  0  0  0  0  0  0  0  0
  2  4  1  0
  2  1  1  6
  2  3  1  0
  4  5  1  1
  6  4  1  0
  6  7  2  0
  8  6  1  0
  9  8  1  0
  9 10  1  6
 11 19  1  0
 11 10  1  0
 12 11  2  0
 13 12  1  0
 13 14  1  0
 14 15  1  0
 14 19  2  0
 15 16  2  0
 16 17  1  0
 18 17  2  0
 19 18  1  0
 20 24  1  0
 20  9  1  0
 21 20  2  0
 23 22  1  1
 23 24  1  0
 23 25  1  0
 25 27  1  0
 26 25  2  0
M  END
$$$$
