VWA.pdb
     RDKit          3D

 27 28  0  0  1  0  0  0  0  0999 V2000
   24.4620  -20.8972  -16.5857 C   0  0  0  0  0  0  0  0  0  0  0  0
   25.5098  -21.9275  -16.8440 C   0  0  1  0  0  0  0  0  0  0  0  0
   26.0662  -21.9652  -18.2209 C   0  0  0  0  0  0  0  0  0  0  0  0
   26.6246  -21.9452  -15.8205 C   0  0  2  0  0  0  0  0  0  0  0  0
   27.4295  -23.1760  -15.9925 N   0  0  0  0  0  0  0  0  0  0  0  0
   26.1387  -21.9935  -14.4200 C   0  0  0  0  0  0  0  0  0  0  0  0
   25.6926  -23.0860  -13.9322 O   0  0  0  0  0  0  0  0  0  0  0  0
   26.1129  -20.9130  -13.5170 N   0  0  0  0  0  0  0  0  0  0  0  0
   25.5654  -21.0406  -12.1489 C   0  0  1  0  0  0  0  0  0  0  0  0
   26.3564  -20.0819  -11.3378 C   0  0  0  0  0  0  0  0  0  0  0  0
   27.5090  -20.5700  -10.5962 C   0  0  0  0  0  0  0  0  0  0  0  0
   28.6123  -21.2733  -11.0514 C   0  0  0  0  0  0  0  0  0  0  0  0
   29.3765  -21.5268  -10.0031 N   0  0  0  0  0  0  0  0  0  0  0  0
   28.8367  -21.0259   -8.8724 C   0  0  0  0  0  0  0  0  0  0  0  0
   29.2448  -21.0108   -7.5467 C   0  0  0  0  0  0  0  0  0  0  0  0
   28.4769  -20.3908   -6.5905 C   0  0  0  0  0  0  0  0  0  0  0  0
   27.2877  -19.7720   -6.9275 C   0  0  0  0  0  0  0  0  0  0  0  0
   26.8780  -19.7838   -8.2345 C   0  0  0  0  0  0  0  0  0  0  0  0
   27.6503  -20.4116   -9.2129 C   0  0  0  0  0  0  0  0  0  0  0  0
   24.1314  -20.7642  -12.0782 C   0  0  0  0  0  0  0  0  0  0  0  0
   23.6865  -19.8583  -12.8558 O   0  0  0  0  0  0  0  0  0  0  0  0
   21.6525  -19.5103  -11.1211 C   0  0  0  0  0  0  0  0  0  0  0  0
   21.8011  -21.0032  -11.2670 C   0  0  2  0  0  0  0  0  0  0  0  0
   23.1911  -21.3995  -11.2359 N   0  0  0  0  0  0  0  0  0  0  0  0
   21.1384  -21.4160  -12.5299 C   0  0  0  0  0  0  0  0  0  0  0  0
   21.7628  -21.9551  -13.4728 O   0  0  0  0  0  0  0  0  0  0  0  0
   19.7786  -21.2017  -12.6814 O   0  0  0  0  0  0  0  0  0  0  0  0
  2  4  1  0
  2  1  1  6
  2  3  1  0
  4  5  1  6
  6  4  1  0
  6  7  2  0
  8  6  1  0
  9  8  1  0
  9 10  1  1
 11 19  1  0
 11 10  1  0
 12 11  2  0
 13 12  1  0
 13 14  1  0
 14 15  1  0
 14 19  2  0
 15 16  2  0
 16 17  1  0
 18 17  2  0
 19 18  1  0
 20 24  1  0
 20  9  1  0
 21 20  2  0
 23 22  1  6
 23 24  1  0
 23 25  1  0
 25 27  1  0
 26 25  2  0
M  END
$$$$
