VWA.pdb
     RDKit          3D

 27 28  0  0  1  0  0  0  0  0999 V2000
   28.3588  -17.9057  -15.9468 C   0  0  0  0  0  0  0  0  0  0  0  0
   27.4795  -18.6888  -15.0305 C   0  0  1  0  0  0  0  0  0  0  0  0
   26.1418  -19.0566  -15.5618 C   0  0  0  0  0  0  0  0  0  0  0  0
   28.1525  -19.8929  -14.4076 C   0  0  2  0  0  0  0  0  0  0  0  0
   28.1998  -20.9947  -15.3956 N   0  0  0  0  0  0  0  0  0  0  0  0
   27.4140  -20.4462  -13.2465 C   0  0  0  0  0  0  0  0  0  0  0  0
   26.6223  -21.4360  -13.4011 O   0  0  0  0  0  0  0  0  0  0  0  0
   27.4916  -19.9796  -11.9199 N   0  0  0  0  0  0  0  0  0  0  0  0
   26.7063  -20.5858  -10.8228 C   0  0  1  0  0  0  0  0  0  0  0  0
   27.2754  -19.9971   -9.5849 C   0  0  0  0  0  0  0  0  0  0  0  0
   26.7597  -20.4327   -8.2962 C   0  0  0  0  0  0  0  0  0  0  0  0
   25.6056  -21.1424   -8.0068 C   0  0  0  0  0  0  0  0  0  0  0  0
   25.5427  -21.2710   -6.6927 N   0  0  0  0  0  0  0  0  0  0  0  0
   26.5986  -20.6826   -6.0930 C   0  0  0  0  0  0  0  0  0  0  0  0
   26.9950  -20.5566   -4.7698 C   0  0  0  0  0  0  0  0  0  0  0  0
   28.1614  -19.9026   -4.4532 C   0  0  0  0  0  0  0  0  0  0  0  0
   28.9605  -19.3592   -5.4415 C   0  0  0  0  0  0  0  0  0  0  0  0
   28.5749  -19.4789   -6.7504 C   0  0  0  0  0  0  0  0  0  0  0  0
   27.3916  -20.1405   -7.0822 C   0  0  0  0  0  0  0  0  0  0  0  0
   25.2709  -20.3330  -10.9390 C   0  0  0  0  0  0  0  0  0  0  0  0
   24.9136  -19.1151  -11.0485 O   0  0  0  0  0  0  0  0  0  0  0  0
   22.3288  -21.9833  -12.2932 C   0  0  0  0  0  0  0  0  0  0  0  0
   22.9067  -20.9448  -11.3660 C   0  0  2  0  0  0  0  0  0  0  0  0
   24.2421  -21.3020  -10.9422 N   0  0  0  0  0  0  0  0  0  0  0  0
   21.9861  -20.7866  -10.2119 C   0  0  0  0  0  0  0  0  0  0  0  0
   22.3391  -21.0181   -9.0324 O   0  0  0  0  0  0  0  0  0  0  0  0
   20.6855  -20.3675  -10.4371 O   0  0  0  0  0  0  0  0  0  0  0  0
  2  4  1  0
  2  1  1  6
  2  3  1  0
  4  5  1  6
  6  4  1  0
  6  7  2  0
  8  6  1  0
  9  8  1  0
  9 10  1  1
 11 19  1  0
 11 10  1  0
 12 11  2  0
 13 12  1  0
 13 14  1  0
 14 15  1  0
 14 19  2  0
 15 16  2  0
 16 17  1  0
 18 17  2  0
 19 18  1  0
 20 24  1  0
 20  9  1  0
 21 20  2  0
 23 22  1  6
 23 24  1  0
 23 25  1  0
 25 27  1  0
 26 25  2  0
M  END
$$$$
