NNV.pdb
     RDKit          3D

 24 23  0  0  1  0  0  0  0  0999 V2000
   15.6374  -12.6211  -14.9442 N   0  0  0  0  0  0  0  0  0  0  0  0
   15.7050  -11.8005  -13.7846 C   0  0  0  0  0  0  0  0  0  0  0  0
   15.2010  -12.2777  -12.7301 O   0  0  0  0  0  0  0  0  0  0  0  0
   16.3220  -10.4532  -13.7632 C   0  0  0  0  0  0  0  0  0  0  0  0
   15.3373   -9.4820  -13.2062 C   0  0  2  0  0  0  0  0  0  0  0  0
   14.2359   -9.3221  -14.1331 N   0  0  0  0  0  0  0  0  0  0  0  0
   15.9450   -8.1526  -12.8943 C   0  0  0  0  0  0  0  0  0  0  0  0
   16.1542   -7.3640  -13.8681 O   0  0  0  0  0  0  0  0  0  0  0  0
   17.3053   -4.5185   -8.1479 N   0  0  0  0  0  0  0  0  0  0  0  0
   17.0723   -4.7534   -9.5429 C   0  0  0  0  0  0  0  0  0  0  0  0
   17.5173   -3.8686  -10.3210 O   0  0  0  0  0  0  0  0  0  0  0  0
   16.3548   -5.9657   -9.9764 C   0  0  0  0  0  0  0  0  0  0  0  0
   16.9143   -6.5734  -11.2305 C   0  0  2  0  0  0  0  0  0  0  0  0
   16.2595   -7.8219  -11.5662 N   0  0  0  0  0  0  0  0  0  0  0  0
   18.3869   -6.7477  -11.2012 C   0  0  0  0  0  0  0  0  0  0  0  0
   18.9759   -7.4227  -10.3233 O   0  0  0  0  0  0  0  0  0  0  0  0
   20.8652   -7.1636  -14.4574 C   0  0  0  0  0  0  0  0  0  0  0  0
   21.1807   -7.4072  -12.9981 C   0  0  1  0  0  0  0  0  0  0  0  0
   22.6878   -7.5388  -12.8901 C   0  0  0  0  0  0  0  0  0  0  0  0
   20.6735   -6.2585  -12.1991 C   0  0  2  0  0  0  0  0  0  0  0  0
   19.2333   -6.1404  -12.1965 N   0  0  0  0  0  0  0  0  0  0  0  0
   21.3440   -5.0095  -12.5899 C   0  0  0  0  0  0  0  0  0  0  0  0
   22.6849   -4.8415  -12.3033 O   0  0  0  0  0  0  0  0  0  0  0  0
   20.7311   -4.0931  -13.1770 O   0  0  0  0  0  0  0  0  0  0  0  0
  1  2  1  0
  2  3  2  0
  4  5  1  0
  4  2  1  0
  5  6  1  6
  7  5  1  0
  8  7  2  0
  9 10  1  0
 10 11  2  0
 10 12  1  0
 13 12  1  1
 13 15  1  0
 13 14  1  0
 14  7  1  0
 15 21  1  0
 16 15  2  0
 18 17  1  6
 19 18  1  0
 20 18  1  0
 20 22  1  0
 20 21  1  6
 22 24  2  0
 22 23  1  0
M  END
$$$$
