NNV.pdb
     RDKit          3D

 24 23  0  0  1  0  0  0  0  0999 V2000
   28.5936  -20.3532  -19.2994 N   0  0  0  0  0  0  0  0  0  0  0  0
   28.4697  -20.3199  -17.8830 C   0  0  0  0  0  0  0  0  0  0  0  0
   29.4515  -19.8474  -17.2454 O   0  0  0  0  0  0  0  0  0  0  0  0
   27.2755  -20.8007  -17.1487 C   0  0  0  0  0  0  0  0  0  0  0  0
   27.7220  -21.6546  -16.0110 C   0  0  2  0  0  0  0  0  0  0  0  0
   28.0589  -22.9761  -16.4990 N   0  0  0  0  0  0  0  0  0  0  0  0
   26.7023  -21.7522  -14.9225 C   0  0  0  0  0  0  0  0  0  0  0  0
   25.6924  -22.4933  -15.1341 O   0  0  0  0  0  0  0  0  0  0  0  0
   24.3364  -21.5378  -10.3948 N   0  0  0  0  0  0  0  0  0  0  0  0
   25.6002  -20.8905  -10.1964 C   0  0  0  0  0  0  0  0  0  0  0  0
   25.8582  -20.5630   -9.0079 O   0  0  0  0  0  0  0  0  0  0  0  0
   26.4941  -20.6516  -11.3438 C   0  0  0  0  0  0  0  0  0  0  0  0
   25.9108  -21.0913  -12.6558 C   0  0  2  0  0  0  0  0  0  0  0  0
   26.8857  -21.0392  -13.7266 N   0  0  0  0  0  0  0  0  0  0  0  0
   24.6791  -20.3570  -13.0350 C   0  0  0  0  0  0  0  0  0  0  0  0
   24.6244  -19.1056  -13.0990 O   0  0  0  0  0  0  0  0  0  0  0  0
   23.1562  -20.0043  -15.9972 C   0  0  0  0  0  0  0  0  0  0  0  0
   21.9582  -20.5067  -15.2221 C   0  0  1  0  0  0  0  0  0  0  0  0
   21.7431  -21.9509  -15.6327 C   0  0  0  0  0  0  0  0  0  0  0  0
   22.2444  -20.3890  -13.7663 C   0  0  2  0  0  0  0  0  0  0  0  0
   23.4597  -21.0542  -13.3552 N   0  0  0  0  0  0  0  0  0  0  0  0
   21.0785  -20.7936  -12.9669 C   0  0  0  0  0  0  0  0  0  0  0  0
   19.9091  -20.0637  -13.0562 O   0  0  0  0  0  0  0  0  0  0  0  0
   21.1172  -21.7841  -12.2069 O   0  0  0  0  0  0  0  0  0  0  0  0
  1  2  1  0
  2  3  2  0
  4  5  1  0
  4  2  1  0
  5  6  1  6
  7  5  1  0
  8  7  2  0
  9 10  1  0
 10 11  2  0
 10 12  1  0
 13 12  1  1
 13 15  1  0
 13 14  1  0
 14  7  1  0
 15 21  1  0
 16 15  2  0
 18 17  1  6
 19 18  1  0
 20 18  1  0
 20 22  1  0
 20 21  1  1
 22 24  2  0
 22 23  1  0
M  END
$$$$
