NNV.pdb
     RDKit          3D

 24 23  0  0  1  0  0  0  0  0999 V2000
   16.3604  -12.8298  -15.7918 N   0  0  0  0  0  0  0  0  0  0  0  0
   16.6732  -12.1468  -14.5842 C   0  0  0  0  0  0  0  0  0  0  0  0
   16.5941  -12.8229  -13.5211 O   0  0  0  0  0  0  0  0  0  0  0  0
   17.0750  -10.7215  -14.5240 C   0  0  0  0  0  0  0  0  0  0  0  0
   16.0886   -9.9785  -13.6886 C   0  0  2  0  0  0  0  0  0  0  0  0
   14.8022   -9.9642  -14.3541 N   0  0  0  0  0  0  0  0  0  0  0  0
   16.5238   -8.5826  -13.3791 C   0  0  0  0  0  0  0  0  0  0  0  0
   16.4552   -7.7286  -14.3172 O   0  0  0  0  0  0  0  0  0  0  0  0
   17.9127   -4.9509   -8.7511 N   0  0  0  0  0  0  0  0  0  0  0  0
   17.3518   -5.1148  -10.0603 C   0  0  0  0  0  0  0  0  0  0  0  0
   17.3456   -4.0801  -10.7783 O   0  0  0  0  0  0  0  0  0  0  0  0
   16.8335   -6.4290  -10.4806 C   0  0  0  0  0  0  0  0  0  0  0  0
   17.4418   -6.9287  -11.7594 C   0  0  2  0  0  0  0  0  0  0  0  0
   16.9846   -8.2631  -12.0915 N   0  0  0  0  0  0  0  0  0  0  0  0
   18.9236   -6.8650  -11.7778 C   0  0  0  0  0  0  0  0  0  0  0  0
   19.6410   -7.4399  -10.9246 O   0  0  0  0  0  0  0  0  0  0  0  0
   21.4769   -8.1652  -13.7077 C   0  0  0  0  0  0  0  0  0  0  0  0
   21.7650   -6.6892  -13.8719 C   0  0  1  0  0  0  0  0  0  0  0  0
   21.2606   -6.2930  -15.2463 C   0  0  0  0  0  0  0  0  0  0  0  0
   21.0623   -5.9401  -12.7947 C   0  0  2  0  0  0  0  0  0  0  0  0
   19.6293   -6.1267  -12.7939 N   0  0  0  0  0  0  0  0  0  0  0  0
   21.4492   -4.5215  -12.8025 C   0  0  0  0  0  0  0  0  0  0  0  0
   22.7460   -4.1708  -12.4806 O   0  0  0  0  0  0  0  0  0  0  0  0
   20.6336   -3.6217  -13.0943 O   0  0  0  0  0  0  0  0  0  0  0  0
  1  2  1  0
  2  3  2  0
  4  5  1  0
  4  2  1  0
  5  6  1  6
  7  5  1  0
  8  7  2  0
  9 10  1  0
 10 11  2  0
 10 12  1  0
 13 12  1  1
 13 15  1  0
 13 14  1  0
 14  7  1  0
 15 21  1  0
 16 15  2  0
 18 17  1  1
 19 18  1  0
 20 18  1  0
 20 22  1  0
 20 21  1  6
 22 24  2  0
 22 23  1  0
M  END
$$$$
