NNV.pdb
     RDKit          3D

 24 23  0  0  1  0  0  0  0  0999 V2000
    8.9883  -13.4803   -9.3660 N   0  0  0  0  0  0  0  0  0  0  0  0
    9.5708  -13.0130  -10.5764 C   0  0  0  0  0  0  0  0  0  0  0  0
    8.7686  -12.6520  -11.4818 O   0  0  0  0  0  0  0  0  0  0  0  0
   11.0321  -12.9347  -10.8111 C   0  0  0  0  0  0  0  0  0  0  0  0
   11.3421  -13.5629  -12.1273 C   0  0  2  0  0  0  0  0  0  0  0  0
   11.0887  -14.9872  -12.0570 N   0  0  0  0  0  0  0  0  0  0  0  0
   12.7457  -13.3111  -12.5752 C   0  0  0  0  0  0  0  0  0  0  0  0
   13.6795  -13.8263  -11.8850 O   0  0  0  0  0  0  0  0  0  0  0  0
   16.8503  -12.4184  -15.4529 N   0  0  0  0  0  0  0  0  0  0  0  0
   15.7651  -12.9502  -16.2242 C   0  0  0  0  0  0  0  0  0  0  0  0
   16.0619  -13.3177  -17.3917 O   0  0  0  0  0  0  0  0  0  0  0  0
   14.4159  -13.0356  -15.6369 C   0  0  0  0  0  0  0  0  0  0  0  0
   14.3146  -12.3992  -14.2805 C   0  0  2  0  0  0  0  0  0  0  0  0
   12.9856  -12.5312  -13.7182 N   0  0  0  0  0  0  0  0  0  0  0  0
   14.7544  -10.9829  -14.2538 C   0  0  0  0  0  0  0  0  0  0  0  0
   14.0552  -10.0437  -14.7034 O   0  0  0  0  0  0  0  0  0  0  0  0
   18.7474   -9.6989  -12.8081 C   0  0  0  0  0  0  0  0  0  0  0  0
   17.4472   -8.9824  -12.5178 C   0  0  1  0  0  0  0  0  0  0  0  0
   17.7763   -7.5070  -12.3941 C   0  0  0  0  0  0  0  0  0  0  0  0
   16.4978   -9.2390  -13.6350 C   0  0  2  0  0  0  0  0  0  0  0  0
   16.0298  -10.6046  -13.7006 N   0  0  0  0  0  0  0  0  0  0  0  0
   17.0504   -8.7671  -14.9133 C   0  0  0  0  0  0  0  0  0  0  0  0
   16.9640   -7.4266  -15.2356 O   0  0  0  0  0  0  0  0  0  0  0  0
   17.5986   -9.5490  -15.7184 O   0  0  0  0  0  0  0  0  0  0  0  0
  1  2  1  0
  2  3  2  0
  4  5  1  0
  4  2  1  0
  5  6  1  1
  7  5  1  0
  8  7  2  0
  9 10  1  0
 10 11  2  0
 10 12  1  0
 13 12  1  6
 13 15  1  0
 13 14  1  0
 14  7  1  0
 15 21  1  0
 16 15  2  0
 18 17  1  6
 19 18  1  0
 20 18  1  0
 20 22  1  0
 20 21  1  6
 22 24  2  0
 22 23  1  0
M  END
$$$$
