CHC.pdb
     RDKit          3D

 23 23  0  0  1  0  0  0  0  0999 V2000
   12.8031  -16.8398   14.8377 N   0  0  0  0  0  0  0  0  0  0  0  0
   11.7594  -17.4639   15.6173 C   0  0  1  0  0  0  0  0  0  0  0  0
   12.0922  -18.9228   15.7440 C   0  0  0  0  0  0  0  0  0  0  0  0
   13.8772  -19.1685   15.5254 S   0  0  0  0  0  0  0  0  0  0  0  0
   11.5915  -16.7780   16.9100 C   0  0  0  0  0  0  0  0  0  0  0  0
   12.5119  -16.0017   17.2600 O   0  0  0  0  0  0  0  0  0  0  0  0
   10.4704  -16.9481   17.7549 N   0  0  0  0  0  0  0  0  0  0  0  0
   10.1343  -16.2926   18.9559 C   0  0  1  0  0  0  0  0  0  0  0  0
    8.7112  -15.8199   19.1236 C   0  0  0  0  0  0  0  0  0  0  0  0
    8.2583  -14.9271   18.0263 C   0  0  0  0  0  0  0  0  0  0  0  0
    8.2563  -13.5282   18.1450 C   0  0  0  0  0  0  0  0  0  0  0  0
    7.8027  -13.0276   17.0066 N   0  0  0  0  0  0  0  0  0  0  0  0
    7.5138  -14.0420   16.1634 C   0  0  0  0  0  0  0  0  0  0  0  0
    7.7992  -15.1783   16.8071 N   0  0  0  0  0  0  0  0  0  0  0  0
   10.6680  -16.8737   20.1887 C   0  0  0  0  0  0  0  0  0  0  0  0
   10.8770  -18.1352   20.3055 O   0  0  0  0  0  0  0  0  0  0  0  0
   10.9846  -16.0848   21.3167 N   0  0  0  0  0  0  0  0  0  0  0  0
   11.5294  -16.7428   22.4941 C   0  0  1  0  0  0  0  0  0  0  0  0
   12.0861  -15.7129   23.4634 C   0  0  0  0  0  0  0  0  0  0  0  0
   12.8087  -16.5904   24.8523 S   0  0  0  0  0  0  0  0  0  0  0  0
   10.4288  -17.4323   23.1868 C   0  0  0  0  0  0  0  0  0  0  0  0
    9.2504  -17.0144   23.1308 O   0  0  0  0  0  0  0  0  0  0  0  0
   10.6832  -18.5724   23.9232 O   0  0  0  0  0  0  0  0  0  0  0  0
  2  3  1  0
  2  1  1  1
  3  4  1  0
  5  6  2  0
  5  2  1  0
  7  5  1  0
  8  7  1  0
  8  9  1  1
 10  9  1  0
 11 10  2  0
 12 11  1  0
 13 14  2  0
 13 12  1  0
 14 10  1  0
 15  8  1  0
 15 17  1  0
 16 15  2  0
 18 17  1  0
 18 21  1  0
 18 19  1  1
 20 19  1  0
 21 23  1  0
 22 21  2  0
M  END
$$$$
