CHC.pdb
     RDKit          3D

 23 23  0  0  1  0  0  0  0  0999 V2000
    7.4761  -15.3756   18.6958 N   0  0  0  0  0  0  0  0  0  0  0  0
    8.2788  -14.6374   19.6431 C   0  0  1  0  0  0  0  0  0  0  0  0
    7.8691  -13.1948   19.5650 C   0  0  0  0  0  0  0  0  0  0  0  0
    8.3851  -12.4935   17.9725 S   0  0  0  0  0  0  0  0  0  0  0  0
    8.1601  -15.2168   20.9921 C   0  0  0  0  0  0  0  0  0  0  0  0
    7.0091  -15.5461   21.3650 O   0  0  0  0  0  0  0  0  0  0  0  0
    9.2541  -15.4150   21.8659 N   0  0  0  0  0  0  0  0  0  0  0  0
    9.2769  -15.8700   23.1992 C   0  0  1  0  0  0  0  0  0  0  0  0
   10.3197  -16.8942   23.5741 C   0  0  0  0  0  0  0  0  0  0  0  0
   10.1294  -18.1996   22.8916 C   0  0  0  0  0  0  0  0  0  0  0  0
    8.8660  -18.7918   22.7361 C   0  0  0  0  0  0  0  0  0  0  0  0
    9.0335  -19.9361   22.0921 N   0  0  0  0  0  0  0  0  0  0  0  0
   10.3470  -20.1046   21.8277 C   0  0  0  0  0  0  0  0  0  0  0  0
   10.9849  -19.0392   22.3227 N   0  0  0  0  0  0  0  0  0  0  0  0
    9.1071  -14.8542   24.2391 C   0  0  0  0  0  0  0  0  0  0  0  0
   10.0361  -14.0135   24.5201 O   0  0  0  0  0  0  0  0  0  0  0  0
    7.9166  -14.7382   24.9903 N   0  0  0  0  0  0  0  0  0  0  0  0
    7.8320  -13.6963   26.0018 C   0  0  1  0  0  0  0  0  0  0  0  0
    6.3977  -13.2137   26.1429 C   0  0  0  0  0  0  0  0  0  0  0  0
    6.3273  -12.0778   27.5307 S   0  0  0  0  0  0  0  0  0  0  0  0
    8.2173  -14.2796   27.2971 C   0  0  0  0  0  0  0  0  0  0  0  0
    8.1692  -15.5129   27.5048 O   0  0  0  0  0  0  0  0  0  0  0  0
    8.6460  -13.4607   28.3229 O   0  0  0  0  0  0  0  0  0  0  0  0
  2  3  1  0
  2  1  1  6
  3  4  1  0
  5  6  2  0
  5  2  1  0
  7  5  1  0
  8  7  1  0
  8  9  1  1
 10  9  1  0
 11 10  2  0
 12 11  1  0
 13 14  2  0
 13 12  1  0
 14 10  1  0
 15  8  1  0
 15 17  1  0
 16 15  2  0
 18 17  1  0
 18 21  1  0
 18 19  1  1
 20 19  1  0
 21 23  1  0
 22 21  2  0
M  END
$$$$
