CHC.pdb
     RDKit          3D

 23 23  0  0  1  0  0  0  0  0999 V2000
   11.6655  -21.8319   17.6955 N   0  0  0  0  0  0  0  0  0  0  0  0
   11.2898  -20.5573   18.2619 C   0  0  1  0  0  0  0  0  0  0  0  0
   10.0043  -20.7510   19.0137 C   0  0  0  0  0  0  0  0  0  0  0  0
    9.4794  -19.1780   19.7515 S   0  0  0  0  0  0  0  0  0  0  0  0
   12.3820  -20.0081   19.0836 C   0  0  0  0  0  0  0  0  0  0  0  0
   12.9305  -20.7952   19.8911 O   0  0  0  0  0  0  0  0  0  0  0  0
   12.8312  -18.6694   19.0082 N   0  0  0  0  0  0  0  0  0  0  0  0
   13.7820  -17.9880   19.7936 C   0  0  1  0  0  0  0  0  0  0  0  0
   14.6736  -16.9849   19.1039 C   0  0  0  0  0  0  0  0  0  0  0  0
   15.4424  -17.5657   17.9735 C   0  0  0  0  0  0  0  0  0  0  0  0
   16.5962  -18.3419   18.1665 C   0  0  0  0  0  0  0  0  0  0  0  0
   17.0408  -18.7069   16.9743 N   0  0  0  0  0  0  0  0  0  0  0  0
   16.2244  -18.2000   16.0256 C   0  0  0  0  0  0  0  0  0  0  0  0
   15.2673  -17.5148   16.6593 N   0  0  0  0  0  0  0  0  0  0  0  0
   13.3283  -17.5110   21.1008 C   0  0  0  0  0  0  0  0  0  0  0  0
   12.6253  -16.4435   21.2235 O   0  0  0  0  0  0  0  0  0  0  0  0
   13.6343  -18.1940   22.2987 N   0  0  0  0  0  0  0  0  0  0  0  0
   12.9946  -17.7578   23.5301 C   0  0  1  0  0  0  0  0  0  0  0  0
   11.5054  -18.0584   23.4858 C   0  0  0  0  0  0  0  0  0  0  0  0
   10.8086  -17.6535   25.0895 S   0  0  0  0  0  0  0  0  0  0  0  0
   13.5568  -18.5399   24.6431 C   0  0  0  0  0  0  0  0  0  0  0  0
   13.2786  -18.2826   25.8360 O   0  0  0  0  0  0  0  0  0  0  0  0
   14.4160  -19.5896   24.3845 O   0  0  0  0  0  0  0  0  0  0  0  0
  2  3  1  0
  2  1  1  1
  3  4  1  0
  5  6  2  0
  5  2  1  0
  7  5  1  0
  8  7  1  0
  8  9  1  6
 10  9  1  0
 11 10  2  0
 12 11  1  0
 13 14  2  0
 13 12  1  0
 14 10  1  0
 15  8  1  0
 15 17  1  0
 16 15  2  0
 18 17  1  0
 18 21  1  0
 18 19  1  6
 20 19  1  0
 21 23  1  0
 22 21  2  0
M  END
$$$$
