CHC.pdb
     RDKit          3D

 23 23  0  0  1  0  0  0  0  0999 V2000
    8.6663  -19.2021   17.1992 N   0  0  0  0  0  0  0  0  0  0  0  0
    8.4406  -18.6510   18.5152 C   0  0  1  0  0  0  0  0  0  0  0  0
    8.6156  -19.7600   19.5126 C   0  0  0  0  0  0  0  0  0  0  0  0
    7.1682  -20.8544   19.4767 S   0  0  0  0  0  0  0  0  0  0  0  0
    9.3183  -17.4925   18.7543 C   0  0  0  0  0  0  0  0  0  0  0  0
   10.5116  -17.6037   18.3854 O   0  0  0  0  0  0  0  0  0  0  0  0
    8.8915  -16.2904   19.3646 N   0  0  0  0  0  0  0  0  0  0  0  0
    9.6313  -15.1484   19.7301 C   0  0  1  0  0  0  0  0  0  0  0  0
    8.9624  -13.8033   19.5883 C   0  0  0  0  0  0  0  0  0  0  0  0
    8.3297  -13.6018   18.2597 C   0  0  0  0  0  0  0  0  0  0  0  0
    9.0719  -13.5698   17.0683 C   0  0  0  0  0  0  0  0  0  0  0  0
    8.2240  -13.3778   16.0701 N   0  0  0  0  0  0  0  0  0  0  0  0
    6.9719  -13.2853   16.5672 C   0  0  0  0  0  0  0  0  0  0  0  0
    7.0669  -13.4244   17.8934 N   0  0  0  0  0  0  0  0  0  0  0  0
   10.4144  -15.2443   20.9629 C   0  0  0  0  0  0  0  0  0  0  0  0
   11.0765  -14.2445   21.4218 O   0  0  0  0  0  0  0  0  0  0  0  0
   10.4864  -16.4360   21.7176 N   0  0  0  0  0  0  0  0  0  0  0  0
   11.2549  -16.4309   22.9527 C   0  0  1  0  0  0  0  0  0  0  0  0
   10.3592  -16.7718   24.1323 C   0  0  0  0  0  0  0  0  0  0  0  0
    9.2479  -15.3889   24.4045 S   0  0  0  0  0  0  0  0  0  0  0  0
   12.2721  -17.4911   22.8664 C   0  0  0  0  0  0  0  0  0  0  0  0
   12.3219  -18.2792   21.8953 O   0  0  0  0  0  0  0  0  0  0  0  0
   13.2052  -17.6363   23.8739 O   0  0  0  0  0  0  0  0  0  0  0  0
  2  3  1  0
  2  1  1  6
  3  4  1  0
  5  6  2  0
  5  2  1  0
  7  5  1  0
  8  7  1  0
  8  9  1  1
 10  9  1  0
 11 10  2  0
 12 11  1  0
 13 14  2  0
 13 12  1  0
 14 10  1  0
 15  8  1  0
 15 17  1  0
 16 15  2  0
 18 17  1  0
 18 21  1  0
 18 19  1  1
 20 19  1  0
 21 23  1  0
 22 21  2  0
M  END
$$$$
