CHC.pdb
     RDKit          3D

 23 23  0  0  1  0  0  0  0  0999 V2000
    7.3796  -15.2184   18.8276 N   0  0  0  0  0  0  0  0  0  0  0  0
    8.1515  -14.5192   19.8286 C   0  0  1  0  0  0  0  0  0  0  0  0
    7.5050  -13.1828   20.0550 C   0  0  0  0  0  0  0  0  0  0  0  0
    7.7857  -12.1115   18.6171 S   0  0  0  0  0  0  0  0  0  0  0  0
    8.2810  -15.3315   21.0505 C   0  0  0  0  0  0  0  0  0  0  0  0
    7.2821  -16.0128   21.3829 O   0  0  0  0  0  0  0  0  0  0  0  0
    9.4481  -15.3794   21.8474 N   0  0  0  0  0  0  0  0  0  0  0  0
    9.6870  -16.0499   23.0633 C   0  0  1  0  0  0  0  0  0  0  0  0
   10.7870  -17.0825   23.0915 C   0  0  0  0  0  0  0  0  0  0  0  0
   10.5771  -18.1873   22.1211 C   0  0  0  0  0  0  0  0  0  0  0  0
   11.2274  -18.2321   20.8777 C   0  0  0  0  0  0  0  0  0  0  0  0
   10.8327  -19.3318   20.2556 N   0  0  0  0  0  0  0  0  0  0  0  0
    9.9589  -19.9942   21.0437 C   0  0  0  0  0  0  0  0  0  0  0  0
    9.8239  -19.2786   22.1648 N   0  0  0  0  0  0  0  0  0  0  0  0
    9.6738  -15.2295   24.2753 C   0  0  0  0  0  0  0  0  0  0  0  0
   10.7147  -14.5889   24.6686 O   0  0  0  0  0  0  0  0  0  0  0  0
    8.5204  -15.0936   25.0792 N   0  0  0  0  0  0  0  0  0  0  0  0
    8.6356  -14.3880   26.3460 C   0  0  1  0  0  0  0  0  0  0  0  0
    7.2742  -13.8809   26.7927 C   0  0  0  0  0  0  0  0  0  0  0  0
    6.6422  -12.7879   25.5171 S   0  0  0  0  0  0  0  0  0  0  0  0
    9.0923  -15.3453   27.3665 C   0  0  0  0  0  0  0  0  0  0  0  0
    9.2240  -16.5642   27.1145 O   0  0  0  0  0  0  0  0  0  0  0  0
    9.3883  -14.9062   28.6418 O   0  0  0  0  0  0  0  0  0  0  0  0
  2  3  1  0
  2  1  1  6
  3  4  1  0
  5  6  2  0
  5  2  1  0
  7  5  1  0
  8  7  1  0
  8  9  1  6
 10  9  1  0
 11 10  2  0
 12 11  1  0
 13 14  2  0
 13 12  1  0
 14 10  1  0
 15  8  1  0
 15 17  1  0
 16 15  2  0
 18 17  1  0
 18 21  1  0
 18 19  1  1
 20 19  1  0
 21 23  1  0
 22 21  2  0
M  END
$$$$
