CHC.pdb
     RDKit          3D

 23 23  0  0  1  0  0  0  0  0999 V2000
    9.2180  -15.4960   16.1726 N   0  0  0  0  0  0  0  0  0  0  0  0
    8.6083  -14.4193   16.9179 C   0  0  1  0  0  0  0  0  0  0  0  0
    7.3436  -14.0293   16.2080 C   0  0  0  0  0  0  0  0  0  0  0  0
    6.5404  -12.6604   17.0884 S   0  0  0  0  0  0  0  0  0  0  0  0
    8.4053  -14.8065   18.3244 C   0  0  0  0  0  0  0  0  0  0  0  0
    8.1116  -13.8875   19.1253 O   0  0  0  0  0  0  0  0  0  0  0  0
    8.5227  -16.1316   18.8040 N   0  0  0  0  0  0  0  0  0  0  0  0
    8.2961  -16.6508   20.0940 C   0  0  1  0  0  0  0  0  0  0  0  0
    8.1077  -18.1420   20.2278 C   0  0  0  0  0  0  0  0  0  0  0  0
    9.3541  -18.9130   19.9863 C   0  0  0  0  0  0  0  0  0  0  0  0
   10.5765  -18.2936   19.6813 C   0  0  0  0  0  0  0  0  0  0  0  0
   11.4833  -19.2454   19.5267 N   0  0  0  0  0  0  0  0  0  0  0  0
   10.8979  -20.4470   19.7186 C   0  0  0  0  0  0  0  0  0  0  0  0
    9.6107  -20.2147   19.9949 N   0  0  0  0  0  0  0  0  0  0  0  0
    9.1200  -16.1031   21.1726 C   0  0  0  0  0  0  0  0  0  0  0  0
   10.2907  -15.6242   20.9517 O   0  0  0  0  0  0  0  0  0  0  0  0
    8.6775  -16.0678   22.5135 N   0  0  0  0  0  0  0  0  0  0  0  0
    9.5513  -15.4823   23.5183 C   0  0  1  0  0  0  0  0  0  0  0  0
    8.8273  -14.3742   24.2653 C   0  0  0  0  0  0  0  0  0  0  0  0
    7.2061  -14.9861   24.7328 S   0  0  0  0  0  0  0  0  0  0  0  0
    9.8785  -16.5227   24.5067 C   0  0  0  0  0  0  0  0  0  0  0  0
    9.2940  -17.6294   24.5166 O   0  0  0  0  0  0  0  0  0  0  0  0
   10.8536  -16.2905   25.4565 O   0  0  0  0  0  0  0  0  0  0  0  0
  2  3  1  0
  2  1  1  6
  3  4  1  0
  5  6  2  0
  5  2  1  0
  7  5  1  0
  8  7  1  0
  8  9  1  6
 10  9  1  0
 11 10  2  0
 12 11  1  0
 13 14  2  0
 13 12  1  0
 14 10  1  0
 15  8  1  0
 15 17  1  0
 16 15  2  0
 18 17  1  0
 18 21  1  0
 18 19  1  1
 20 19  1  0
 21 23  1  0
 22 21  2  0
M  END
$$$$
