IVM.pdb
     RDKit          3D

 24 23  0  0  1  0  0  0  0  0999 V2000
   18.7851  -16.2282  -18.1862 C   0  0  0  0  0  0  0  0  0  0  0  0
   19.6589  -15.0790  -18.6226 C   0  0  0  0  0  0  0  0  0  0  0  0
   19.4837  -13.8973  -17.7020 C   0  0  2  0  0  0  0  0  0  0  0  0
   18.0213  -13.4568  -17.7609 C   0  0  0  0  0  0  0  0  0  0  0  0
   20.3431  -12.7312  -18.0621 C   0  0  2  0  0  0  0  0  0  0  0  0
   21.7298  -13.0803  -18.2585 N   0  0  0  0  0  0  0  0  0  0  0  0
   20.2444  -11.7078  -17.0096 C   0  0  0  0  0  0  0  0  0  0  0  0
   19.1350  -11.3475  -16.5376 O   0  0  0  0  0  0  0  0  0  0  0  0
   23.1693  -11.3681  -14.6855 C   0  0  0  0  0  0  0  0  0  0  0  0
   22.5694   -9.9929  -14.6691 C   0  0  1  0  0  0  0  0  0  0  0  0
   23.4942   -8.9793  -15.3554 C   0  0  0  0  0  0  0  0  0  0  0  0
   21.2812   -9.9910  -15.4648 C   0  0  2  0  0  0  0  0  0  0  0  0
   21.3874  -11.0514  -16.4484 N   0  0  0  0  0  0  0  0  0  0  0  0
   21.0535   -8.6679  -16.1042 C   0  0  0  0  0  0  0  0  0  0  0  0
   21.6077   -8.4179  -17.2157 O   0  0  0  0  0  0  0  0  0  0  0  0
   15.8083   -6.6474  -18.4345 C   0  0  0  0  0  0  0  0  0  0  0  0
   16.1411   -5.2512  -17.3143 S   0  0  0  0  0  0  0  0  0  0  0  0
   17.9174   -5.1722  -16.9140 C   0  0  0  0  0  0  0  0  0  0  0  0
   18.4273   -6.4599  -16.3679 C   0  0  0  0  0  0  0  0  0  0  0  0
   19.8831   -6.4908  -16.0520 C   0  0  2  0  0  0  0  0  0  0  0  0
   20.2178   -7.7465  -15.4266 N   0  0  0  0  0  0  0  0  0  0  0  0
   20.3690   -5.3695  -15.2472 C   0  0  0  0  0  0  0  0  0  0  0  0
   20.6328   -5.4222  -14.0239 O   0  0  0  0  0  0  0  0  0  0  0  0
   20.5598   -4.1427  -15.8661 O   0  0  0  0  0  0  0  0  0  0  0  0
  2  1  1  0
  3  5  1  0
  3  2  1  0
  3  4  1  6
  5  6  1  1
  7  5  1  0
  8  7  2  0
 10 11  1  6
 10  9  1  0
 12 10  1  0
 12 13  1  6
 13  7  1  0
 14 12  1  0
 15 14  2  0
 17 16  1  0
 17 18  1  0
 19 18  1  0
 20 19  1  1
 20 22  1  0
 20 21  1  0
 21 14  1  0
 22 24  1  0
 23 22  2  0
M  END
$$$$
