IVM.pdb
     RDKit          3D

 24 23  0  0  1  0  0  0  0  0999 V2000
   27.3941  -20.7623   -3.7735 C   0  0  0  0  0  0  0  0  0  0  0  0
   27.9251  -19.8305   -4.8339 C   0  0  0  0  0  0  0  0  0  0  0  0
   27.1875  -20.0284   -6.1345 C   0  0  2  0  0  0  0  0  0  0  0  0
   27.3015  -21.5000   -6.5308 C   0  0  0  0  0  0  0  0  0  0  0  0
   27.7208  -19.1954   -7.2524 C   0  0  2  0  0  0  0  0  0  0  0  0
   27.7368  -17.7826   -6.9574 N   0  0  0  0  0  0  0  0  0  0  0  0
   26.9176  -19.4297   -8.4627 C   0  0  0  0  0  0  0  0  0  0  0  0
   25.7285  -19.0290   -8.5567 O   0  0  0  0  0  0  0  0  0  0  0  0
   28.3462  -21.7819  -11.7201 C   0  0  0  0  0  0  0  0  0  0  0  0
   27.8193  -20.3953  -11.9461 C   0  0  1  0  0  0  0  0  0  0  0  0
   27.1188  -20.2862  -13.3066 C   0  0  0  0  0  0  0  0  0  0  0  0
   26.7665  -20.0760  -10.9057 C   0  0  2  0  0  0  0  0  0  0  0  0
   27.4197  -20.1224   -9.6117 N   0  0  0  0  0  0  0  0  0  0  0  0
   25.6330  -21.0351  -10.9849 C   0  0  0  0  0  0  0  0  0  0  0  0
   25.6342  -22.0531  -10.2308 O   0  0  0  0  0  0  0  0  0  0  0  0
   22.2985  -21.3246   -7.3500 C   0  0  0  0  0  0  0  0  0  0  0  0
   20.8879  -21.6173   -8.4634 S   0  0  0  0  0  0  0  0  0  0  0  0
   21.4752  -21.9081  -10.1640 C   0  0  0  0  0  0  0  0  0  0  0  0
   22.7939  -21.2661  -10.4196 C   0  0  0  0  0  0  0  0  0  0  0  0
   23.3330  -21.4354  -11.7984 C   0  0  2  0  0  0  0  0  0  0  0  0
   24.5992  -20.7545  -11.9118 N   0  0  0  0  0  0  0  0  0  0  0  0
   22.4299  -21.0249  -12.8741 C   0  0  0  0  0  0  0  0  0  0  0  0
   22.3923  -19.8823  -13.3859 O   0  0  0  0  0  0  0  0  0  0  0  0
   21.5373  -21.9572  -13.3824 O   0  0  0  0  0  0  0  0  0  0  0  0
  2  1  1  0
  3  5  1  0
  3  2  1  0
  3  4  1  6
  5  6  1  1
  7  5  1  0
  8  7  2  0
 10 11  1  6
 10  9  1  0
 12 10  1  0
 12 13  1  1
 13  7  1  0
 14 12  1  0
 15 14  2  0
 17 16  1  0
 17 18  1  0
 19 18  1  0
 20 19  1  1
 20 22  1  0
 20 21  1  0
 21 14  1  0
 22 24  1  0
 23 22  2  0
M  END
$$$$
