IVM.pdb
     RDKit          3D

 24 23  0  0  1  0  0  0  0  0999 V2000
   20.9849  -17.5373  -18.0274 C   0  0  0  0  0  0  0  0  0  0  0  0
   21.7252  -17.1201  -16.7813 C   0  0  0  0  0  0  0  0  0  0  0  0
   22.7076  -18.1855  -16.3637 C   0  0  2  0  0  0  0  0  0  0  0  0
   21.9381  -19.4880  -16.1464 C   0  0  0  0  0  0  0  0  0  0  0  0
   23.4428  -17.8559  -15.1072 C   0  0  2  0  0  0  0  0  0  0  0  0
   24.3069  -16.7066  -15.2334 N   0  0  0  0  0  0  0  0  0  0  0  0
   24.2401  -19.0192  -14.6880 C   0  0  0  0  0  0  0  0  0  0  0  0
   23.7115  -20.1389  -14.4641 O   0  0  0  0  0  0  0  0  0  0  0  0
   27.6031  -20.0942  -16.2041 C   0  0  0  0  0  0  0  0  0  0  0  0
   27.7846  -20.0289  -14.7162 C   0  0  1  0  0  0  0  0  0  0  0  0
   28.4012  -18.6891  -14.2938 C   0  0  0  0  0  0  0  0  0  0  0  0
   26.4337  -20.1016  -14.0359 C   0  0  2  0  0  0  0  0  0  0  0  0
   25.6600  -18.9682  -14.5048 N   0  0  0  0  0  0  0  0  0  0  0  0
   26.5826  -20.0923  -12.5564 C   0  0  0  0  0  0  0  0  0  0  0  0
   27.2771  -19.1825  -12.0134 O   0  0  0  0  0  0  0  0  0  0  0  0
   27.9005  -17.6162   -7.8525 C   0  0  0  0  0  0  0  0  0  0  0  0
   26.4175  -18.5659   -7.3900 S   0  0  0  0  0  0  0  0  0  0  0  0
   26.4239  -20.1899   -8.2174 C   0  0  0  0  0  0  0  0  0  0  0  0
   26.2480  -20.0695   -9.6908 C   0  0  0  0  0  0  0  0  0  0  0  0
   26.2925  -21.3515  -10.4487 C   0  0  2  0  0  0  0  0  0  0  0  0
   25.9308  -21.1151  -11.8246 N   0  0  0  0  0  0  0  0  0  0  0  0
   25.4884  -22.4360   -9.8843 C   0  0  0  0  0  0  0  0  0  0  0  0
   24.5329  -23.0010  -10.4646 O   0  0  0  0  0  0  0  0  0  0  0  0
   25.7897  -22.8902   -8.6087 O   0  0  0  0  0  0  0  0  0  0  0  0
  2  1  1  0
  3  5  1  0
  3  2  1  0
  3  4  1  1
  5  6  1  6
  7  5  1  0
  8  7  2  0
 10 11  1  6
 10  9  1  0
 12 10  1  0
 12 13  1  6
 13  7  1  0
 14 12  1  0
 15 14  2  0
 17 16  1  0
 17 18  1  0
 19 18  1  0
 20 19  1  1
 20 22  1  0
 20 21  1  0
 21 14  1  0
 22 24  1  0
 23 22  2  0
M  END
$$$$
