IVM.pdb
     RDKit          3D

 24 23  0  0  1  0  0  0  0  0999 V2000
   24.8109  -14.1331  -15.6341 C   0  0  0  0  0  0  0  0  0  0  0  0
   25.4246  -15.3758  -16.2288 C   0  0  0  0  0  0  0  0  0  0  0  0
   25.5031  -16.4757  -15.1999 C   0  0  2  0  0  0  0  0  0  0  0  0
   26.3549  -15.9793  -14.0320 C   0  0  0  0  0  0  0  0  0  0  0  0
   26.1073  -17.7364  -15.7230 C   0  0  2  0  0  0  0  0  0  0  0  0
   25.6146  -18.1099  -17.0272 N   0  0  0  0  0  0  0  0  0  0  0  0
   25.8501  -18.8317  -14.7748 C   0  0  0  0  0  0  0  0  0  0  0  0
   24.6896  -19.2732  -14.5712 O   0  0  0  0  0  0  0  0  0  0  0  0
   27.4919  -21.9398  -15.0991 C   0  0  0  0  0  0  0  0  0  0  0  0
   27.6309  -21.7014  -13.6243 C   0  0  1  0  0  0  0  0  0  0  0  0
   29.0253  -21.1612  -13.2817 C   0  0  0  0  0  0  0  0  0  0  0  0
   26.6491  -20.6346  -13.1873 C   0  0  2  0  0  0  0  0  0  0  0  0
   26.8864  -19.4714  -14.0204 N   0  0  0  0  0  0  0  0  0  0  0  0
   26.8136  -20.3203  -11.7433 C   0  0  0  0  0  0  0  0  0  0  0  0
   27.9266  -19.8751  -11.3332 O   0  0  0  0  0  0  0  0  0  0  0  0
   29.1214  -20.1352   -7.9034 C   0  0  0  0  0  0  0  0  0  0  0  0
   27.9724  -19.3529   -6.7275 S   0  0  0  0  0  0  0  0  0  0  0  0
   26.3734  -19.0170   -7.5352 C   0  0  0  0  0  0  0  0  0  0  0  0
   26.4267  -19.2524   -9.0043 C   0  0  0  0  0  0  0  0  0  0  0  0
   25.8891  -20.5641   -9.4634 C   0  0  2  0  0  0  0  0  0  0  0  0
   25.7018  -20.5386  -10.8931 N   0  0  0  0  0  0  0  0  0  0  0  0
   24.6658  -21.0043   -8.7920 C   0  0  0  0  0  0  0  0  0  0  0  0
   23.5198  -20.9833   -9.2971 O   0  0  0  0  0  0  0  0  0  0  0  0
   24.7583  -21.4865   -7.4945 O   0  0  0  0  0  0  0  0  0  0  0  0
  2  1  1  0
  3  5  1  0
  3  2  1  0
  3  4  1  1
  5  6  1  6
  7  5  1  0
  8  7  2  0
 10 11  1  6
 10  9  1  0
 12 10  1  0
 12 13  1  6
 13  7  1  0
 14 12  1  0
 15 14  2  0
 17 16  1  0
 17 18  1  0
 19 18  1  0
 20 19  1  1
 20 22  1  0
 20 21  1  0
 21 14  1  0
 22 24  1  0
 23 22  2  0
M  END
$$$$
