IVM.pdb
     RDKit          3D

 24 23  0  0  1  0  0  0  0  0999 V2000
   18.5155  -20.1283  -14.4610 C   0  0  0  0  0  0  0  0  0  0  0  0
   19.6286  -19.2637  -13.9242 C   0  0  0  0  0  0  0  0  0  0  0  0
   20.6507  -20.1017  -13.1979 C   0  0  2  0  0  0  0  0  0  0  0  0
   19.9329  -20.8906  -12.1032 C   0  0  0  0  0  0  0  0  0  0  0  0
   21.7372  -19.2971  -12.5652 C   0  0  2  0  0  0  0  0  0  0  0  0
   22.4475  -18.4578  -13.5003 N   0  0  0  0  0  0  0  0  0  0  0  0
   22.6908  -20.2000  -11.9016 C   0  0  0  0  0  0  0  0  0  0  0  0
   22.3209  -21.0333  -11.0344 O   0  0  0  0  0  0  0  0  0  0  0  0
   26.6835  -20.6110  -13.2526 C   0  0  0  0  0  0  0  0  0  0  0  0
   25.9486  -21.6695  -12.4841 C   0  0  1  0  0  0  0  0  0  0  0  0
   26.9218  -22.5529  -11.6929 C   0  0  0  0  0  0  0  0  0  0  0  0
   25.0453  -21.0179  -11.4584 C   0  0  2  0  0  0  0  0  0  0  0  0
   24.0946  -20.2004  -12.1873 N   0  0  0  0  0  0  0  0  0  0  0  0
   25.8353  -20.2122  -10.4899 C   0  0  0  0  0  0  0  0  0  0  0  0
   26.0246  -18.9815  -10.7232 O   0  0  0  0  0  0  0  0  0  0  0  0
   26.7422  -17.8343   -4.6554 C   0  0  0  0  0  0  0  0  0  0  0  0
   27.8703  -19.2624   -4.7095 S   0  0  0  0  0  0  0  0  0  0  0  0
   28.3576  -19.6177   -6.4294 C   0  0  0  0  0  0  0  0  0  0  0  0
   27.2096  -20.0890   -7.2517 C   0  0  0  0  0  0  0  0  0  0  0  0
   27.5166  -20.3635   -8.6837 C   0  0  2  0  0  0  0  0  0  0  0  0
   26.3401  -20.8737   -9.3435 N   0  0  0  0  0  0  0  0  0  0  0  0
   28.6605  -21.2458   -8.9166 C   0  0  0  0  0  0  0  0  0  0  0  0
   28.6134  -22.4974   -8.9299 O   0  0  0  0  0  0  0  0  0  0  0  0
   29.9039  -20.6738   -9.1427 O   0  0  0  0  0  0  0  0  0  0  0  0
  2  1  1  0
  3  5  1  0
  3  2  1  0
  3  4  1  1
  5  6  1  6
  7  5  1  0
  8  7  2  0
 10 11  1  1
 10  9  1  0
 12 10  1  0
 12 13  1  6
 13  7  1  0
 14 12  1  0
 15 14  2  0
 17 16  1  0
 17 18  1  0
 19 18  1  0
 20 19  1  1
 20 22  1  0
 20 21  1  0
 21 14  1  0
 22 24  1  0
 23 22  2  0
M  END
$$$$
