IVM.pdb
     RDKit          3D

 24 23  0  0  1  0  0  0  0  0999 V2000
   21.4371  -20.5749  -17.0933 C   0  0  0  0  0  0  0  0  0  0  0  0
   20.5910  -20.0645  -15.9539 C   0  0  0  0  0  0  0  0  0  0  0  0
   20.8162  -20.8901  -14.7120 C   0  0  2  0  0  0  0  0  0  0  0  0
   20.4681  -22.3432  -15.0333 C   0  0  0  0  0  0  0  0  0  0  0  0
   19.9888  -20.4521  -13.5495 C   0  0  2  0  0  0  0  0  0  0  0  0
   20.2130  -19.0770  -13.1721 N   0  0  0  0  0  0  0  0  0  0  0  0
   20.2657  -21.3233  -12.3966 C   0  0  0  0  0  0  0  0  0  0  0  0
   20.0854  -22.5675  -12.4479 O   0  0  0  0  0  0  0  0  0  0  0  0
   21.4420  -19.6003   -8.7628 C   0  0  0  0  0  0  0  0  0  0  0  0
   21.9483  -20.9754   -9.0851 C   0  0  1  0  0  0  0  0  0  0  0  0
   22.0557  -21.8347   -7.8188 C   0  0  0  0  0  0  0  0  0  0  0  0
   20.9597  -21.6820   -9.9886 C   0  0  2  0  0  0  0  0  0  0  0  0
   20.7552  -20.8297  -11.1440 N   0  0  0  0  0  0  0  0  0  0  0  0
   19.6851  -21.9535   -9.2723 C   0  0  0  0  0  0  0  0  0  0  0  0
   18.8032  -21.0455   -9.2198 O   0  0  0  0  0  0  0  0  0  0  0  0
   15.8224  -24.8159  -11.6877 C   0  0  0  0  0  0  0  0  0  0  0  0
   14.9140  -24.6375  -10.1199 S   0  0  0  0  0  0  0  0  0  0  0  0
   15.9500  -23.7910   -8.8823 C   0  0  0  0  0  0  0  0  0  0  0  0
   17.3670  -24.2449   -8.9318 C   0  0  0  0  0  0  0  0  0  0  0  0
   18.2957  -23.5510   -7.9958 C   0  0  2  0  0  0  0  0  0  0  0  0
   19.5242  -23.2299   -8.6797 N   0  0  0  0  0  0  0  0  0  0  0  0
   18.5724  -24.2665   -6.7497 C   0  0  0  0  0  0  0  0  0  0  0  0
   19.6081  -24.9309   -6.5156 O   0  0  0  0  0  0  0  0  0  0  0  0
   17.6283  -24.2193   -5.7344 O   0  0  0  0  0  0  0  0  0  0  0  0
  2  1  1  0
  3  5  1  0
  3  2  1  0
  3  4  1  6
  5  6  1  1
  7  5  1  0
  8  7  2  0
 10 11  1  1
 10  9  1  0
 12 10  1  0
 12 13  1  6
 13  7  1  0
 14 12  1  0
 15 14  2  0
 17 16  1  0
 17 18  1  0
 19 18  1  0
 20 19  1  6
 20 22  1  0
 20 21  1  0
 21 14  1  0
 22 24  1  0
 23 22  2  0
M  END
$$$$
