IWR.pdb
     RDKit          3D

 34 35  0  0  1  0  0  0  0  0999 V2000
   29.5616  -19.5428  -17.8470 C   0  0  0  0  0  0  0  0  0  0  0  0
   29.2698  -19.1213  -16.4413 C   0  0  0  0  0  0  0  0  0  0  0  0
   28.2126  -19.9241  -15.7455 C   0  0  2  0  0  0  0  0  0  0  0  0
   26.9537  -19.8818  -16.6060 C   0  0  0  0  0  0  0  0  0  0  0  0
   27.8633  -19.4861  -14.3722 C   0  0  2  0  0  0  0  0  0  0  0  0
   28.9425  -19.3127  -13.4719 N   0  0  0  0  0  0  0  0  0  0  0  0
   26.7712  -20.2509  -13.7315 C   0  0  0  0  0  0  0  0  0  0  0  0
   26.0651  -21.0686  -14.3845 O   0  0  0  0  0  0  0  0  0  0  0  0
   26.5080  -20.0666  -12.3708 N   0  0  0  0  0  0  0  0  0  0  0  0
   25.4504  -20.5951  -11.5828 C   0  0  1  0  0  0  0  0  0  0  0  0
   25.7152  -20.3880  -10.1425 C   0  0  0  0  0  0  0  0  0  0  0  0
   27.1077  -20.6975   -9.7500 C   0  0  0  0  0  0  0  0  0  0  0  0
   28.0853  -21.3917  -10.3958 C   0  0  0  0  0  0  0  0  0  0  0  0
   29.2281  -21.4469   -9.6603 N   0  0  0  0  0  0  0  0  0  0  0  0
   28.9919  -20.7771   -8.5143 C   0  0  0  0  0  0  0  0  0  0  0  0
   29.7396  -20.4929   -7.3904 C   0  0  0  0  0  0  0  0  0  0  0  0
   29.2533  -19.7704   -6.3159 C   0  0  0  0  0  0  0  0  0  0  0  0
   27.9576  -19.3130   -6.3742 C   0  0  0  0  0  0  0  0  0  0  0  0
   27.1672  -19.5795   -7.4940 C   0  0  0  0  0  0  0  0  0  0  0  0
   27.6969  -20.3047   -8.5405 C   0  0  0  0  0  0  0  0  0  0  0  0
   24.0802  -20.2991  -12.0119 C   0  0  0  0  0  0  0  0  0  0  0  0
   23.5644  -19.1959  -11.7990 O   0  0  0  0  0  0  0  0  0  0  0  0
   19.9386  -26.3408  -14.0739 N   0  0  0  0  0  0  0  0  0  0  0  0
   18.8075  -25.7842  -13.4071 C   0  0  0  0  0  0  0  0  0  0  0  0
   18.0446  -26.5346  -12.7090 N   0  0  0  0  0  0  0  0  0  0  0  0
   18.5490  -24.3941  -13.5331 N   0  0  0  0  0  0  0  0  0  0  0  0
   19.4601  -23.5222  -14.2600 C   0  0  0  0  0  0  0  0  0  0  0  0
   20.6087  -23.1978  -13.3638 C   0  0  0  0  0  0  0  0  0  0  0  0
   21.6458  -22.3273  -13.9718 C   0  0  0  0  0  0  0  0  0  0  0  0
   21.9829  -21.0798  -13.2062 C   0  0  2  0  0  0  0  0  0  0  0  0
   23.3341  -21.2981  -12.6828 N   0  0  0  0  0  0  0  0  0  0  0  0
   21.0695  -21.0246  -12.0311 C   0  0  0  0  0  0  0  0  0  0  0  0
   21.4065  -21.4748  -10.9002 O   0  0  0  0  0  0  0  0  0  0  0  0
   19.8240  -20.4734  -12.1592 O   0  0  0  0  0  0  0  0  0  0  0  0
  2  1  1  0
  3  2  1  0
  3  4  1  6
  5  3  1  0
  5  6  1  1
  7  5  1  0
  8  7  2  0
  9  7  1  0
 10  9  1  0
 10 11  1  1
 12 11  1  0
 13 12  2  0
 14 13  1  0
 15 14  1  0
 15 20  2  0
 16 17  2  0
 16 15  1  0
 17 18  1  0
 18 19  2  0
 20 19  1  0
 20 12  1  0
 21 10  1  0
 21 31  1  0
 22 21  2  0
 23 24  1  0
 24 26  1  0
 24 25  2  0
 26 27  1  0
 28 27  1  0
 28 29  1  0
 30 31  1  0
 30 29  1  6
 30 32  1  0
 32 33  2  0
 32 34  1  0
M  END
$$$$
