IWR.pdb
     RDKit          3D

 34 35  0  0  1  0  0  0  0  0999 V2000
   27.4772  -18.6948  -17.7085 C   0  0  0  0  0  0  0  0  0  0  0  0
   28.0823  -19.3689  -16.5176 C   0  0  0  0  0  0  0  0  0  0  0  0
   27.0967  -19.9530  -15.5511 C   0  0  2  0  0  0  0  0  0  0  0  0
   26.1814  -18.8268  -15.0815 C   0  0  0  0  0  0  0  0  0  0  0  0
   27.6739  -20.6228  -14.3603 C   0  0  2  0  0  0  0  0  0  0  0  0
   28.6816  -21.5871  -14.6056 N   0  0  0  0  0  0  0  0  0  0  0  0
   26.6820  -21.1436  -13.3945 C   0  0  0  0  0  0  0  0  0  0  0  0
   26.1317  -22.2686  -13.5535 O   0  0  0  0  0  0  0  0  0  0  0  0
   26.3394  -20.3753  -12.2778 N   0  0  0  0  0  0  0  0  0  0  0  0
   25.4255  -20.6726  -11.2313 C   0  0  1  0  0  0  0  0  0  0  0  0
   25.8577  -20.0460   -9.9633 C   0  0  0  0  0  0  0  0  0  0  0  0
   27.1619  -20.5455   -9.4750 C   0  0  0  0  0  0  0  0  0  0  0  0
   28.0567  -21.4055  -10.0357 C   0  0  0  0  0  0  0  0  0  0  0  0
   29.1340  -21.6019   -9.2290 N   0  0  0  0  0  0  0  0  0  0  0  0
   28.9387  -20.8571   -8.1223 C   0  0  0  0  0  0  0  0  0  0  0  0
   29.6562  -20.6426   -6.9638 C   0  0  0  0  0  0  0  0  0  0  0  0
   29.2261  -19.8110   -5.9457 C   0  0  0  0  0  0  0  0  0  0  0  0
   28.0212  -19.1661   -6.0994 C   0  0  0  0  0  0  0  0  0  0  0  0
   27.2640  -19.3566   -7.2571 C   0  0  0  0  0  0  0  0  0  0  0  0
   27.7348  -20.1962   -8.2445 C   0  0  0  0  0  0  0  0  0  0  0  0
   23.9961  -20.5464  -11.5317 C   0  0  0  0  0  0  0  0  0  0  0  0
   23.5322  -19.5124  -12.0257 O   0  0  0  0  0  0  0  0  0  0  0  0
   17.1161  -23.4140   -9.3132 N   0  0  0  0  0  0  0  0  0  0  0  0
   16.8096  -24.0713  -10.5411 C   0  0  0  0  0  0  0  0  0  0  0  0
   15.6035  -24.1103  -10.9609 N   0  0  0  0  0  0  0  0  0  0  0  0
   17.8606  -24.6750  -11.2801 N   0  0  0  0  0  0  0  0  0  0  0  0
   19.2490  -24.5343  -10.8659 C   0  0  0  0  0  0  0  0  0  0  0  0
   19.7321  -23.1921  -11.3047 C   0  0  0  0  0  0  0  0  0  0  0  0
   21.1831  -22.9558  -11.1004 C   0  0  0  0  0  0  0  0  0  0  0  0
   21.6942  -21.6121  -11.5359 C   0  0  2  0  0  0  0  0  0  0  0  0
   23.1311  -21.6311  -11.2490 N   0  0  0  0  0  0  0  0  0  0  0  0
   21.0875  -20.5965  -10.6311 C   0  0  0  0  0  0  0  0  0  0  0  0
   21.5614  -20.3528   -9.4860 O   0  0  0  0  0  0  0  0  0  0  0  0
   19.9840  -19.8954  -11.0334 O   0  0  0  0  0  0  0  0  0  0  0  0
  2  1  1  0
  3  2  1  0
  3  4  1  1
  5  3  1  0
  5  6  1  6
  7  5  1  0
  8  7  2  0
  9  7  1  0
 10  9  1  0
 10 11  1  1
 12 11  1  0
 13 12  2  0
 14 13  1  0
 15 14  1  0
 15 20  2  0
 16 17  2  0
 16 15  1  0
 17 18  1  0
 18 19  2  0
 20 19  1  0
 20 12  1  0
 21 10  1  0
 21 31  1  0
 22 21  2  0
 23 24  1  0
 24 26  1  0
 24 25  2  0
 26 27  1  0
 28 27  1  0
 28 29  1  0
 30 31  1  0
 30 29  1  1
 30 32  1  0
 32 33  2  0
 32 34  1  0
M  END
$$$$
