IWR.pdb
     RDKit          3D

 34 35  0  0  1  0  0  0  0  0999 V2000
   19.1814  -24.6620  -13.6627 C   0  0  0  0  0  0  0  0  0  0  0  0
   20.3061  -25.6066  -13.3769 C   0  0  0  0  0  0  0  0  0  0  0  0
   19.9345  -26.8049  -12.5568 C   0  0  2  0  0  0  0  0  0  0  0  0
   19.4012  -26.3058  -11.2177 C   0  0  0  0  0  0  0  0  0  0  0  0
   21.0230  -27.7792  -12.3004 C   0  0  2  0  0  0  0  0  0  0  0  0
   21.7505  -28.2240  -13.4310 N   0  0  0  0  0  0  0  0  0  0  0  0
   20.6474  -28.9238  -11.4421 C   0  0  0  0  0  0  0  0  0  0  0  0
   19.6136  -29.6111  -11.6715 O   0  0  0  0  0  0  0  0  0  0  0  0
   21.4510  -29.2564  -10.3476 N   0  0  0  0  0  0  0  0  0  0  0  0
   21.2692  -30.2815   -9.3806 C   0  0  1  0  0  0  0  0  0  0  0  0
   22.5432  -30.5875   -8.6944 C   0  0  0  0  0  0  0  0  0  0  0  0
   23.4955  -31.3476   -9.5336 C   0  0  0  0  0  0  0  0  0  0  0  0
   23.4371  -31.7143  -10.8438 C   0  0  0  0  0  0  0  0  0  0  0  0
   24.5365  -32.4248  -11.2134 N   0  0  0  0  0  0  0  0  0  0  0  0
   25.3260  -32.5236  -10.1250 C   0  0  0  0  0  0  0  0  0  0  0  0
   26.5456  -33.1145   -9.8673 C   0  0  0  0  0  0  0  0  0  0  0  0
   27.1620  -33.0785   -8.6297 C   0  0  0  0  0  0  0  0  0  0  0  0
   26.5239  -32.4185   -7.6055 C   0  0  0  0  0  0  0  0  0  0  0  0
   25.2877  -31.8074   -7.8249 C   0  0  0  0  0  0  0  0  0  0  0  0
   24.7128  -31.8708   -9.0767 C   0  0  0  0  0  0  0  0  0  0  0  0
   20.0996  -30.1772   -8.5028 C   0  0  0  0  0  0  0  0  0  0  0  0
   20.0181  -29.2922   -7.6434 O   0  0  0  0  0  0  0  0  0  0  0  0
   13.7626  -26.8686   -8.5788 N   0  0  0  0  0  0  0  0  0  0  0  0
   13.2943  -28.0241   -9.2711 C   0  0  0  0  0  0  0  0  0  0  0  0
   12.3705  -27.9131  -10.1468 N   0  0  0  0  0  0  0  0  0  0  0  0
   13.8692  -29.2868   -8.9710 N   0  0  0  0  0  0  0  0  0  0  0  0
   15.2425  -29.3957   -8.5009 C   0  0  0  0  0  0  0  0  0  0  0  0
   15.9955  -30.2578   -9.4586 C   0  0  0  0  0  0  0  0  0  0  0  0
   16.7094  -31.4013   -8.8374 C   0  0  0  0  0  0  0  0  0  0  0  0
   17.8008  -31.0428   -7.8698 C   0  0  2  0  0  0  0  0  0  0  0  0
   19.0436  -31.1099   -8.6432 N   0  0  0  0  0  0  0  0  0  0  0  0
   17.8650  -32.1319   -6.8559 C   0  0  0  0  0  0  0  0  0  0  0  0
   18.7210  -33.0581   -6.9226 O   0  0  0  0  0  0  0  0  0  0  0  0
   16.9797  -32.1477   -5.8132 O   0  0  0  0  0  0  0  0  0  0  0  0
  2  1  1  0
  3  2  1  0
  3  4  1  1
  5  3  1  0
  5  6  1  6
  7  5  1  0
  8  7  2  0
  9  7  1  0
 10  9  1  0
 10 11  1  1
 12 11  1  0
 13 12  2  0
 14 13  1  0
 15 14  1  0
 15 20  2  0
 16 17  2  0
 16 15  1  0
 17 18  1  0
 18 19  2  0
 20 19  1  0
 20 12  1  0
 21 10  1  0
 21 31  1  0
 22 21  2  0
 23 24  1  0
 24 26  1  0
 24 25  2  0
 26 27  1  0
 28 27  1  0
 28 29  1  0
 30 31  1  0
 30 29  1  6
 30 32  1  0
 32 33  2  0
 32 34  1  0
M  END
$$$$
