IWR.pdb
     RDKit          3D

 34 35  0  0  1  0  0  0  0  0999 V2000
   28.8446  -19.2106  -18.1792 C   0  0  0  0  0  0  0  0  0  0  0  0
   29.3508  -20.0639  -17.0591 C   0  0  0  0  0  0  0  0  0  0  0  0
   28.3870  -20.2628  -15.9286 C   0  0  2  0  0  0  0  0  0  0  0  0
   28.0798  -18.8929  -15.3319 C   0  0  0  0  0  0  0  0  0  0  0  0
   28.8395  -21.1634  -14.8405 C   0  0  2  0  0  0  0  0  0  0  0  0
   29.3659  -22.4168  -15.2371 N   0  0  0  0  0  0  0  0  0  0  0  0
   27.8777  -21.3330  -13.7295 C   0  0  0  0  0  0  0  0  0  0  0  0
   26.7241  -21.8090  -13.9204 O   0  0  0  0  0  0  0  0  0  0  0  0
   28.2480  -20.9568  -12.4350 N   0  0  0  0  0  0  0  0  0  0  0  0
   27.4617  -20.9224  -11.2520 C   0  0  1  0  0  0  0  0  0  0  0  0
   28.2543  -20.4184  -10.1096 C   0  0  0  0  0  0  0  0  0  0  0  0
   27.5010  -20.3936   -8.8365 C   0  0  0  0  0  0  0  0  0  0  0  0
   26.1685  -20.5165   -8.5835 C   0  0  0  0  0  0  0  0  0  0  0  0
   25.9015  -20.4215   -7.2532 N   0  0  0  0  0  0  0  0  0  0  0  0
   27.0805  -20.2330   -6.6271 C   0  0  0  0  0  0  0  0  0  0  0  0
   27.4588  -20.0633   -5.3114 C   0  0  0  0  0  0  0  0  0  0  0  0
   28.7708  -19.8775   -4.9150 C   0  0  0  0  0  0  0  0  0  0  0  0
   29.7460  -19.8620   -5.8847 C   0  0  0  0  0  0  0  0  0  0  0  0
   29.4048  -20.0299   -7.2282 C   0  0  0  0  0  0  0  0  0  0  0  0
   28.0823  -20.2116   -7.5742 C   0  0  0  0  0  0  0  0  0  0  0  0
   26.1078  -20.3708  -11.3610 C   0  0  0  0  0  0  0  0  0  0  0  0
   25.9188  -19.1612  -11.5332 O   0  0  0  0  0  0  0  0  0  0  0  0
   19.3191  -24.7566  -12.2464 N   0  0  0  0  0  0  0  0  0  0  0  0
   18.9151  -23.7980  -13.2218 C   0  0  0  0  0  0  0  0  0  0  0  0
   17.6750  -23.5368  -13.3851 N   0  0  0  0  0  0  0  0  0  0  0  0
   19.9078  -23.1465  -13.9996 N   0  0  0  0  0  0  0  0  0  0  0  0
   21.3227  -23.2957  -13.6919 C   0  0  0  0  0  0  0  0  0  0  0  0
   21.7546  -22.1075  -12.8987 C   0  0  0  0  0  0  0  0  0  0  0  0
   23.1903  -22.0992  -12.5221 C   0  0  0  0  0  0  0  0  0  0  0  0
   23.6574  -20.8966  -11.7530 C   0  0  2  0  0  0  0  0  0  0  0  0
   24.9958  -21.2420  -11.2664 N   0  0  0  0  0  0  0  0  0  0  0  0
   22.7817  -20.7736  -10.5546 C   0  0  0  0  0  0  0  0  0  0  0  0
   23.0174  -21.4050   -9.4864 O   0  0  0  0  0  0  0  0  0  0  0  0
   21.6846  -19.9574  -10.5910 O   0  0  0  0  0  0  0  0  0  0  0  0
  2  1  1  0
  3  2  1  0
  3  4  1  1
  5  3  1  0
  5  6  1  6
  7  5  1  0
  8  7  2  0
  9  7  1  0
 10  9  1  0
 10 11  1  1
 12 11  1  0
 13 12  2  0
 14 13  1  0
 15 14  1  0
 15 20  2  0
 16 17  2  0
 16 15  1  0
 17 18  1  0
 18 19  2  0
 20 19  1  0
 20 12  1  0
 21 10  1  0
 21 31  1  0
 22 21  2  0
 23 24  1  0
 24 26  1  0
 24 25  2  0
 26 27  1  0
 28 27  1  0
 28 29  1  0
 30 31  1  0
 30 29  1  6
 30 32  1  0
 32 33  2  0
 32 34  1  0
M  END
$$$$
