IWR.pdb
     RDKit          3D

 34 35  0  0  1  0  0  0  0  0999 V2000
   28.7020  -23.7026  -18.8287 C   0  0  0  0  0  0  0  0  0  0  0  0
   27.6959  -22.7144  -18.3288 C   0  0  0  0  0  0  0  0  0  0  0  0
   27.3342  -22.8554  -16.8811 C   0  0  2  0  0  0  0  0  0  0  0  0
   26.7027  -24.2308  -16.6905 C   0  0  0  0  0  0  0  0  0  0  0  0
   26.4095  -21.8298  -16.3399 C   0  0  2  0  0  0  0  0  0  0  0  0
   26.7774  -20.4778  -16.5451 N   0  0  0  0  0  0  0  0  0  0  0  0
   25.9885  -22.0457  -14.9384 C   0  0  0  0  0  0  0  0  0  0  0  0
   25.4738  -23.1356  -14.5630 O   0  0  0  0  0  0  0  0  0  0  0  0
   26.1597  -21.0213  -14.0026 N   0  0  0  0  0  0  0  0  0  0  0  0
   25.7609  -20.9764  -12.6395 C   0  0  1  0  0  0  0  0  0  0  0  0
   26.6852  -20.1341  -11.8498 C   0  0  0  0  0  0  0  0  0  0  0  0
   26.3316  -20.0585  -10.4152 C   0  0  0  0  0  0  0  0  0  0  0  0
   25.2085  -19.6033   -9.7940 C   0  0  0  0  0  0  0  0  0  0  0  0
   25.3086  -19.7069   -8.4415 N   0  0  0  0  0  0  0  0  0  0  0  0
   26.5185  -20.2389   -8.1755 C   0  0  0  0  0  0  0  0  0  0  0  0
   27.1925  -20.5752   -7.0198 C   0  0  0  0  0  0  0  0  0  0  0  0
   28.4646  -21.1181   -7.0117 C   0  0  0  0  0  0  0  0  0  0  0  0
   29.0866  -21.3328   -8.2193 C   0  0  0  0  0  0  0  0  0  0  0  0
   28.4388  -21.0058   -9.4122 C   0  0  0  0  0  0  0  0  0  0  0  0
   27.1704  -20.4662   -9.3690 C   0  0  0  0  0  0  0  0  0  0  0  0
   24.3368  -20.7650  -12.3629 C   0  0  0  0  0  0  0  0  0  0  0  0
   23.6751  -19.9358  -12.9979 O   0  0  0  0  0  0  0  0  0  0  0  0
   17.5750  -22.8767   -8.4163 N   0  0  0  0  0  0  0  0  0  0  0  0
   18.1352  -24.1878   -8.3882 C   0  0  0  0  0  0  0  0  0  0  0  0
   17.3691  -25.2102   -8.4110 N   0  0  0  0  0  0  0  0  0  0  0  0
   19.5463  -24.3328   -8.3349 N   0  0  0  0  0  0  0  0  0  0  0  0
   20.4160  -23.1766   -8.1749 C   0  0  0  0  0  0  0  0  0  0  0  0
   20.6138  -22.5536   -9.5167 C   0  0  0  0  0  0  0  0  0  0  0  0
   22.0252  -22.2460   -9.8579 C   0  0  0  0  0  0  0  0  0  0  0  0
   22.2545  -21.6540  -11.2191 C   0  0  2  0  0  0  0  0  0  0  0  0
   23.7086  -21.5259  -11.3475 N   0  0  0  0  0  0  0  0  0  0  0  0
   21.7005  -20.2717  -11.1966 C   0  0  0  0  0  0  0  0  0  0  0  0
   20.5669  -19.9974  -11.6812 O   0  0  0  0  0  0  0  0  0  0  0  0
   22.4251  -19.2543  -10.6386 O   0  0  0  0  0  0  0  0  0  0  0  0
  2  1  1  0
  3  2  1  0
  3  4  1  6
  5  3  1  0
  5  6  1  1
  7  5  1  0
  8  7  2  0
  9  7  1  0
 10  9  1  0
 10 11  1  1
 12 11  1  0
 13 12  2  0
 14 13  1  0
 15 14  1  0
 15 20  2  0
 16 17  2  0
 16 15  1  0
 17 18  1  0
 18 19  2  0
 20 19  1  0
 20 12  1  0
 21 10  1  0
 21 31  1  0
 22 21  2  0
 23 24  1  0
 24 26  1  0
 24 25  2  0
 26 27  1  0
 28 27  1  0
 28 29  1  0
 30 31  1  0
 30 29  1  1
 30 32  1  0
 32 33  2  0
 32 34  1  0
M  END
$$$$
