IWR.pdb
     RDKit          3D

 34 35  0  0  1  0  0  0  0  0999 V2000
   28.7306  -17.4988  -17.3034 C   0  0  0  0  0  0  0  0  0  0  0  0
   29.1781  -18.5069  -16.2922 C   0  0  0  0  0  0  0  0  0  0  0  0
   28.0790  -19.3218  -15.6804 C   0  0  2  0  0  0  0  0  0  0  0  0
   27.2000  -18.3799  -14.8637 C   0  0  0  0  0  0  0  0  0  0  0  0
   28.5093  -20.4430  -14.8100 C   0  0  2  0  0  0  0  0  0  0  0  0
   29.4814  -21.3214  -15.3474 N   0  0  0  0  0  0  0  0  0  0  0  0
   27.4075  -21.2078  -14.1862 C   0  0  0  0  0  0  0  0  0  0  0  0
   26.7445  -22.0625  -14.8370 O   0  0  0  0  0  0  0  0  0  0  0  0
   27.0861  -20.9818  -12.8444 N   0  0  0  0  0  0  0  0  0  0  0  0
   26.0578  -21.5675  -12.0581 C   0  0  1  0  0  0  0  0  0  0  0  0
   26.5597  -21.9123  -10.7103 C   0  0  0  0  0  0  0  0  0  0  0  0
   26.4458  -20.8026   -9.7385 C   0  0  0  0  0  0  0  0  0  0  0  0
   25.5650  -19.7666   -9.6637 C   0  0  0  0  0  0  0  0  0  0  0  0
   25.8324  -18.9589   -8.6025 N   0  0  0  0  0  0  0  0  0  0  0  0
   26.9067  -19.4769   -7.9739 C   0  0  0  0  0  0  0  0  0  0  0  0
   27.6416  -19.1178   -6.8630 C   0  0  0  0  0  0  0  0  0  0  0  0
   28.7357  -19.8330   -6.4110 C   0  0  0  0  0  0  0  0  0  0  0  0
   29.1074  -20.9597   -7.1066 C   0  0  0  0  0  0  0  0  0  0  0  0
   28.3900  -21.3572   -8.2367 C   0  0  0  0  0  0  0  0  0  0  0  0
   27.3061  -20.6109   -8.6488 C   0  0  0  0  0  0  0  0  0  0  0  0
   24.7415  -20.9225  -12.0852 C   0  0  0  0  0  0  0  0  0  0  0  0
   24.5962  -19.7441  -11.7405 O   0  0  0  0  0  0  0  0  0  0  0  0
   17.9190  -23.9559  -16.3062 N   0  0  0  0  0  0  0  0  0  0  0  0
   19.3135  -24.1789  -16.1075 C   0  0  0  0  0  0  0  0  0  0  0  0
   19.9948  -24.7939  -16.9964 N   0  0  0  0  0  0  0  0  0  0  0  0
   19.9231  -23.7086  -14.9149 N   0  0  0  0  0  0  0  0  0  0  0  0
   19.1515  -23.0000  -13.9043 C   0  0  0  0  0  0  0  0  0  0  0  0
   19.9845  -21.8751  -13.3864 C   0  0  0  0  0  0  0  0  0  0  0  0
   21.4219  -22.1975  -13.2051 C   0  0  0  0  0  0  0  0  0  0  0  0
   22.2788  -21.0856  -12.6707 C   0  0  2  0  0  0  0  0  0  0  0  0
   23.6153  -21.6656  -12.5142 N   0  0  0  0  0  0  0  0  0  0  0  0
   21.7841  -20.7679  -11.3023 C   0  0  0  0  0  0  0  0  0  0  0  0
   22.2589  -21.3256  -10.2733 O   0  0  0  0  0  0  0  0  0  0  0  0
   20.7867  -19.8473  -11.1330 O   0  0  0  0  0  0  0  0  0  0  0  0
  2  1  1  0
  3  2  1  0
  3  4  1  1
  5  3  1  0
  5  6  1  6
  7  5  1  0
  8  7  2  0
  9  7  1  0
 10  9  1  0
 10 11  1  1
 12 11  1  0
 13 12  2  0
 14 13  1  0
 15 14  1  0
 15 20  2  0
 16 17  2  0
 16 15  1  0
 17 18  1  0
 18 19  2  0
 20 19  1  0
 20 12  1  0
 21 10  1  0
 21 31  1  0
 22 21  2  0
 23 24  1  0
 24 26  1  0
 24 25  2  0
 26 27  1  0
 28 27  1  0
 28 29  1  0
 30 31  1  0
 30 29  1  1
 30 32  1  0
 32 33  2  0
 32 34  1  0
M  END
$$$$
