IWR.pdb
     RDKit          3D

 34 35  0  0  1  0  0  0  0  0999 V2000
   28.3135  -18.7843  -17.5121 C   0  0  0  0  0  0  0  0  0  0  0  0
   28.8065  -19.7543  -16.4849 C   0  0  0  0  0  0  0  0  0  0  0  0
   27.8407  -20.0501  -15.3776 C   0  0  2  0  0  0  0  0  0  0  0  0
   27.6186  -18.7591  -14.5959 C   0  0  0  0  0  0  0  0  0  0  0  0
   28.2470  -21.1151  -14.4288 C   0  0  2  0  0  0  0  0  0  0  0  0
   28.6402  -22.3507  -14.9982 N   0  0  0  0  0  0  0  0  0  0  0  0
   27.3148  -21.3368  -13.3019 C   0  0  0  0  0  0  0  0  0  0  0  0
   26.2550  -22.0082  -13.4426 O   0  0  0  0  0  0  0  0  0  0  0  0
   27.6073  -20.7902  -12.0488 N   0  0  0  0  0  0  0  0  0  0  0  0
   26.7665  -20.6550  -10.9114 C   0  0  1  0  0  0  0  0  0  0  0  0
   27.5200  -20.1036   -9.7644 C   0  0  0  0  0  0  0  0  0  0  0  0
   26.8050  -20.2302   -8.4754 C   0  0  0  0  0  0  0  0  0  0  0  0
   25.5152  -20.5680   -8.1979 C   0  0  0  0  0  0  0  0  0  0  0  0
   25.2707  -20.5502   -6.8600 N   0  0  0  0  0  0  0  0  0  0  0  0
   26.4212  -20.1943   -6.2539 C   0  0  0  0  0  0  0  0  0  0  0  0
   26.8017  -20.0008   -4.9421 C   0  0  0  0  0  0  0  0  0  0  0  0
   28.0780  -19.6208   -4.5685 C   0  0  0  0  0  0  0  0  0  0  0  0
   29.0136  -19.4272   -5.5578 C   0  0  0  0  0  0  0  0  0  0  0  0
   28.6686  -19.6123   -6.8981 C   0  0  0  0  0  0  0  0  0  0  0  0
   27.3826  -19.9912   -7.2210 C   0  0  0  0  0  0  0  0  0  0  0  0
   25.4393  -20.0692  -11.1229 C   0  0  0  0  0  0  0  0  0  0  0  0
   25.2954  -18.8562  -11.3142 O   0  0  0  0  0  0  0  0  0  0  0  0
   23.8057  -23.7608  -16.2806 N   0  0  0  0  0  0  0  0  0  0  0  0
   23.4384  -24.3501  -15.0350 C   0  0  0  0  0  0  0  0  0  0  0  0
   23.9936  -25.4360  -14.6538 N   0  0  0  0  0  0  0  0  0  0  0  0
   22.4539  -23.7126  -14.2353 N   0  0  0  0  0  0  0  0  0  0  0  0
   21.8133  -22.4802  -14.6707 C   0  0  0  0  0  0  0  0  0  0  0  0
   22.3718  -21.3551  -13.8647 C   0  0  0  0  0  0  0  0  0  0  0  0
   22.4624  -21.6191  -12.4069 C   0  0  0  0  0  0  0  0  0  0  0  0
   22.9768  -20.4843  -11.5679 C   0  0  2  0  0  0  0  0  0  0  0  0
   24.3008  -20.9107  -11.1069 N   0  0  0  0  0  0  0  0  0  0  0  0
   22.1072  -20.3998  -10.3617 C   0  0  0  0  0  0  0  0  0  0  0  0
   22.4025  -20.9848   -9.2820 O   0  0  0  0  0  0  0  0  0  0  0  0
   20.9499  -19.6717  -10.4034 O   0  0  0  0  0  0  0  0  0  0  0  0
  2  1  1  0
  3  2  1  0
  3  4  1  1
  5  3  1  0
  5  6  1  6
  7  5  1  0
  8  7  2  0
  9  7  1  0
 10  9  1  0
 10 11  1  1
 12 11  1  0
 13 12  2  0
 14 13  1  0
 15 14  1  0
 15 20  2  0
 16 17  2  0
 16 15  1  0
 17 18  1  0
 18 19  2  0
 20 19  1  0
 20 12  1  0
 21 10  1  0
 21 31  1  0
 22 21  2  0
 23 24  1  0
 24 26  1  0
 24 25  2  0
 26 27  1  0
 28 27  1  0
 28 29  1  0
 30 31  1  0
 30 29  1  6
 30 32  1  0
 32 33  2  0
 32 34  1  0
M  END
$$$$
