IWR.pdb
     RDKit          3D

 34 35  0  0  1  0  0  0  0  0999 V2000
   16.9267  -30.7749  -11.6858 C   0  0  0  0  0  0  0  0  0  0  0  0
   16.8150  -29.3955  -11.1168 C   0  0  0  0  0  0  0  0  0  0  0  0
   16.5058  -29.3377   -9.6514 C   0  0  2  0  0  0  0  0  0  0  0  0
   15.1547  -30.0114   -9.4334 C   0  0  0  0  0  0  0  0  0  0  0  0
   16.4626  -27.9826   -9.0499 C   0  0  2  0  0  0  0  0  0  0  0  0
   17.5838  -27.1510   -9.2877 N   0  0  0  0  0  0  0  0  0  0  0  0
   16.0833  -27.9455   -7.6206 C   0  0  0  0  0  0  0  0  0  0  0  0
   15.4805  -28.9091   -7.0712 O   0  0  0  0  0  0  0  0  0  0  0  0
   16.3949  -26.8181   -6.8547 N   0  0  0  0  0  0  0  0  0  0  0  0
   15.9843  -26.4897   -5.5348 C   0  0  1  0  0  0  0  0  0  0  0  0
   16.7649  -25.3478   -5.0112 C   0  0  0  0  0  0  0  0  0  0  0  0
   16.2787  -24.8527   -3.7046 C   0  0  0  0  0  0  0  0  0  0  0  0
   15.4740  -23.7998   -3.3906 C   0  0  0  0  0  0  0  0  0  0  0  0
   15.2883  -23.6958   -2.0472 N   0  0  0  0  0  0  0  0  0  0  0  0
   15.9842  -24.6985   -1.4744 C   0  0  0  0  0  0  0  0  0  0  0  0
   16.1903  -25.1111   -0.1743 C   0  0  0  0  0  0  0  0  0  0  0  0
   16.9738  -26.1997    0.1631 C   0  0  0  0  0  0  0  0  0  0  0  0
   17.5768  -26.9053   -0.8519 C   0  0  0  0  0  0  0  0  0  0  0  0
   17.3937  -26.5201   -2.1815 C   0  0  0  0  0  0  0  0  0  0  0  0
   16.6034  -25.4270   -2.4679 C   0  0  0  0  0  0  0  0  0  0  0  0
   14.5426  -26.4284   -5.2754 C   0  0  0  0  0  0  0  0  0  0  0  0
   13.8000  -25.6998   -5.9435 O   0  0  0  0  0  0  0  0  0  0  0  0
    9.4540  -33.0258   -4.4235 N   0  0  0  0  0  0  0  0  0  0  0  0
    9.8981  -32.1165   -5.4284 C   0  0  0  0  0  0  0  0  0  0  0  0
    9.9891  -32.5020   -6.6432 N   0  0  0  0  0  0  0  0  0  0  0  0
   10.2333  -30.7884   -5.0559 N   0  0  0  0  0  0  0  0  0  0  0  0
   10.3815  -30.4140   -3.6571 C   0  0  0  0  0  0  0  0  0  0  0  0
   10.7526  -28.9696   -3.5985 C   0  0  0  0  0  0  0  0  0  0  0  0
   12.1349  -28.6638   -4.0443 C   0  0  0  0  0  0  0  0  0  0  0  0
   12.5648  -27.2313   -3.9050 C   0  0  2  0  0  0  0  0  0  0  0  0
   13.9917  -27.2195   -4.2385 N   0  0  0  0  0  0  0  0  0  0  0  0
   12.4566  -26.8780   -2.4622 C   0  0  0  0  0  0  0  0  0  0  0  0
   13.4371  -26.9818   -1.6729 O   0  0  0  0  0  0  0  0  0  0  0  0
   11.2688  -26.4252   -1.9569 O   0  0  0  0  0  0  0  0  0  0  0  0
  2  1  1  0
  3  2  1  0
  3  4  1  6
  5  3  1  0
  5  6  1  1
  7  5  1  0
  8  7  2  0
  9  7  1  0
 10  9  1  0
 10 11  1  6
 12 11  1  0
 13 12  2  0
 14 13  1  0
 15 14  1  0
 15 20  2  0
 16 17  2  0
 16 15  1  0
 17 18  1  0
 18 19  2  0
 20 19  1  0
 20 12  1  0
 21 10  1  0
 21 31  1  0
 22 21  2  0
 23 24  1  0
 24 26  1  0
 24 25  2  0
 26 27  1  0
 28 27  1  0
 28 29  1  0
 30 31  1  0
 30 29  1  1
 30 32  1  0
 32 33  2  0
 32 34  1  0
M  END
$$$$
