IWR.pdb
     RDKit          3D

 34 35  0  0  1  0  0  0  0  0999 V2000
   28.2540  -21.9950  -18.0656 C   0  0  0  0  0  0  0  0  0  0  0  0
   28.9753  -21.8738  -16.7603 C   0  0  0  0  0  0  0  0  0  0  0  0
   28.1515  -22.1910  -15.5491 C   0  0  2  0  0  0  0  0  0  0  0  0
   27.6057  -23.6058  -15.7143 C   0  0  0  0  0  0  0  0  0  0  0  0
   27.0179  -21.2742  -15.2765 C   0  0  2  0  0  0  0  0  0  0  0  0
   27.3210  -19.8916  -15.2342 N   0  0  0  0  0  0  0  0  0  0  0  0
   26.1696  -21.6546  -14.1260 C   0  0  0  0  0  0  0  0  0  0  0  0
   25.7351  -22.8315  -13.9853 O   0  0  0  0  0  0  0  0  0  0  0  0
   25.8356  -20.6918  -13.1689 N   0  0  0  0  0  0  0  0  0  0  0  0
   24.9859  -20.8108  -12.0363 C   0  0  1  0  0  0  0  0  0  0  0  0
   25.5079  -20.0168  -10.9030 C   0  0  0  0  0  0  0  0  0  0  0  0
   26.7865  -20.5305  -10.3644 C   0  0  0  0  0  0  0  0  0  0  0  0
   27.7592  -21.2893  -10.9413 C   0  0  0  0  0  0  0  0  0  0  0  0
   28.7732  -21.5473  -10.0722 N   0  0  0  0  0  0  0  0  0  0  0  0
   28.4565  -20.9464   -8.9076 C   0  0  0  0  0  0  0  0  0  0  0  0
   29.0662  -20.8497   -7.6739 C   0  0  0  0  0  0  0  0  0  0  0  0
   28.5196  -20.1593   -6.6074 C   0  0  0  0  0  0  0  0  0  0  0  0
   27.3061  -19.5382   -6.7893 C   0  0  0  0  0  0  0  0  0  0  0  0
   26.6559  -19.6123   -8.0228 C   0  0  0  0  0  0  0  0  0  0  0  0
   27.2408  -20.3131   -9.0564 C   0  0  0  0  0  0  0  0  0  0  0  0
   23.5423  -20.6946  -12.2642 C   0  0  0  0  0  0  0  0  0  0  0  0
   23.0669  -19.7493  -12.9036 O   0  0  0  0  0  0  0  0  0  0  0  0
   16.2633  -25.6977  -10.2180 N   0  0  0  0  0  0  0  0  0  0  0  0
   16.8361  -25.7881  -11.5209 C   0  0  0  0  0  0  0  0  0  0  0  0
   16.2793  -26.5122  -12.4144 N   0  0  0  0  0  0  0  0  0  0  0  0
   18.0247  -25.0650  -11.8023 N   0  0  0  0  0  0  0  0  0  0  0  0
   18.7774  -24.4121  -10.7411 C   0  0  0  0  0  0  0  0  0  0  0  0
   19.2450  -23.0886  -11.2482 C   0  0  0  0  0  0  0  0  0  0  0  0
   20.7187  -22.9124  -11.2604 C   0  0  0  0  0  0  0  0  0  0  0  0
   21.2205  -21.6479  -11.8970 C   0  0  2  0  0  0  0  0  0  0  0  0
   22.6770  -21.6853  -11.7403 N   0  0  0  0  0  0  0  0  0  0  0  0
   20.7272  -20.5127  -11.0687 C   0  0  0  0  0  0  0  0  0  0  0  0
   21.3705  -20.0844  -10.0698 O   0  0  0  0  0  0  0  0  0  0  0  0
   19.5443  -19.9015  -11.3825 O   0  0  0  0  0  0  0  0  0  0  0  0
  2  1  1  0
  3  2  1  0
  3  4  1  6
  5  3  1  0
  5  6  1  1
  7  5  1  0
  8  7  2  0
  9  7  1  0
 10  9  1  0
 10 11  1  1
 12 11  1  0
 13 12  2  0
 14 13  1  0
 15 14  1  0
 15 20  2  0
 16 17  2  0
 16 15  1  0
 17 18  1  0
 18 19  2  0
 20 19  1  0
 20 12  1  0
 21 10  1  0
 21 31  1  0
 22 21  2  0
 23 24  1  0
 24 26  1  0
 24 25  2  0
 26 27  1  0
 28 27  1  0
 28 29  1  0
 30 31  1  0
 30 29  1  1
 30 32  1  0
 32 33  2  0
 32 34  1  0
M  END
$$$$
