IWR.pdb
     RDKit          3D

 34 35  0  0  1  0  0  0  0  0999 V2000
   19.1427  -22.4143  -10.8973 C   0  0  0  0  0  0  0  0  0  0  0  0
   20.1971  -22.5078   -9.8398 C   0  0  0  0  0  0  0  0  0  0  0  0
   21.3935  -21.6318  -10.0584 C   0  0  2  0  0  0  0  0  0  0  0  0
   22.0517  -22.0601  -11.3661 C   0  0  0  0  0  0  0  0  0  0  0  0
   22.4163  -21.6496   -8.9844 C   0  0  2  0  0  0  0  0  0  0  0  0
   21.9452  -21.4656   -7.6617 N   0  0  0  0  0  0  0  0  0  0  0  0
   23.6008  -20.8001   -9.2359 C   0  0  0  0  0  0  0  0  0  0  0  0
   23.5137  -19.5417   -9.2854 O   0  0  0  0  0  0  0  0  0  0  0  0
   24.8496  -21.3992   -9.4266 N   0  0  0  0  0  0  0  0  0  0  0  0
   26.0661  -20.8142   -9.8700 C   0  0  1  0  0  0  0  0  0  0  0  0
   27.1607  -21.0922   -8.9150 C   0  0  0  0  0  0  0  0  0  0  0  0
   27.3538  -20.0206   -7.9135 C   0  0  0  0  0  0  0  0  0  0  0  0
   26.8924  -18.7399   -7.8742 C   0  0  0  0  0  0  0  0  0  0  0  0
   27.3252  -18.0866   -6.7625 N   0  0  0  0  0  0  0  0  0  0  0  0
   28.0825  -18.9563   -6.0641 C   0  0  0  0  0  0  0  0  0  0  0  0
   28.7875  -18.8887   -4.8803 C   0  0  0  0  0  0  0  0  0  0  0  0
   29.5105  -19.9486   -4.3639 C   0  0  0  0  0  0  0  0  0  0  0  0
   29.5251  -21.1294   -5.0689 C   0  0  0  0  0  0  0  0  0  0  0  0
   28.8248  -21.2390   -6.2719 C   0  0  0  0  0  0  0  0  0  0  0  0
   28.1185  -20.1539   -6.7465 C   0  0  0  0  0  0  0  0  0  0  0  0
   26.4165  -20.9827  -11.2836 C   0  0  0  0  0  0  0  0  0  0  0  0
   26.5723  -22.1053  -11.7776 O   0  0  0  0  0  0  0  0  0  0  0  0
   28.9095  -17.8335  -18.2129 N   0  0  0  0  0  0  0  0  0  0  0  0
   27.6993  -17.0818  -18.2775 C   0  0  0  0  0  0  0  0  0  0  0  0
   27.1529  -16.8472  -19.4085 N   0  0  0  0  0  0  0  0  0  0  0  0
   27.1200  -16.6044  -17.0728 N   0  0  0  0  0  0  0  0  0  0  0  0
   27.7329  -16.8812  -15.7818 C   0  0  0  0  0  0  0  0  0  0  0  0
   27.4023  -18.2859  -15.4010 C   0  0  0  0  0  0  0  0  0  0  0  0
   27.0837  -18.4826  -13.9647 C   0  0  0  0  0  0  0  0  0  0  0  0
   26.8224  -19.8998  -13.5413 C   0  0  2  0  0  0  0  0  0  0  0  0
   26.5798  -19.8357  -12.0975 N   0  0  0  0  0  0  0  0  0  0  0  0
   28.0909  -20.6567  -13.7318 C   0  0  0  0  0  0  0  0  0  0  0  0
   29.0985  -20.4701  -12.9934 O   0  0  0  0  0  0  0  0  0  0  0  0
   28.1882  -21.5866  -14.7303 O   0  0  0  0  0  0  0  0  0  0  0  0
  2  1  1  0
  3  2  1  0
  3  4  1  6
  5  3  1  0
  5  6  1  1
  7  5  1  0
  8  7  2  0
  9  7  1  0
 10  9  1  0
 10 11  1  1
 12 11  1  0
 13 12  2  0
 14 13  1  0
 15 14  1  0
 15 20  2  0
 16 17  2  0
 16 15  1  0
 17 18  1  0
 18 19  2  0
 20 19  1  0
 20 12  1  0
 21 10  1  0
 21 31  1  0
 22 21  2  0
 23 24  1  0
 24 26  1  0
 24 25  2  0
 26 27  1  0
 28 27  1  0
 28 29  1  0
 30 31  1  0
 30 29  1  1
 30 32  1  0
 32 33  2  0
 32 34  1  0
M  END
$$$$
