IWR.pdb
     RDKit          3D

 34 35  0  0  1  0  0  0  0  0999 V2000
   30.5221  -20.6432  -16.4945 C   0  0  0  0  0  0  0  0  0  0  0  0
   29.4800  -19.8203  -15.8047 C   0  0  0  0  0  0  0  0  0  0  0  0
   28.7097  -20.5379  -14.7377 C   0  0  2  0  0  0  0  0  0  0  0  0
   28.0610  -21.7625  -15.3752 C   0  0  0  0  0  0  0  0  0  0  0  0
   27.6586  -19.7470  -14.0526 C   0  0  2  0  0  0  0  0  0  0  0  0
   28.0622  -18.5081  -13.4981 N   0  0  0  0  0  0  0  0  0  0  0  0
   26.8377  -20.5059  -13.0839 C   0  0  0  0  0  0  0  0  0  0  0  0
   26.3499  -21.6342  -13.3714 O   0  0  0  0  0  0  0  0  0  0  0  0
   26.5905  -19.9652  -11.8185 N   0  0  0  0  0  0  0  0  0  0  0  0
   25.6506  -20.3769  -10.8358 C   0  0  1  0  0  0  0  0  0  0  0  0
   26.0653  -19.9235   -9.4905 C   0  0  0  0  0  0  0  0  0  0  0  0
   27.3875  -20.4423   -9.0766 C   0  0  0  0  0  0  0  0  0  0  0  0
   28.2834  -21.2313   -9.7319 C   0  0  0  0  0  0  0  0  0  0  0  0
   29.3811  -21.4815   -8.9687 N   0  0  0  0  0  0  0  0  0  0  0  0
   29.1982  -20.8446   -7.7946 C   0  0  0  0  0  0  0  0  0  0  0  0
   29.9374  -20.7240   -6.6361 C   0  0  0  0  0  0  0  0  0  0  0  0
   29.5166  -19.9967   -5.5375 C   0  0  0  0  0  0  0  0  0  0  0  0
   28.2984  -19.3620   -5.6069 C   0  0  0  0  0  0  0  0  0  0  0  0
   27.5193  -19.4593   -6.7615 C   0  0  0  0  0  0  0  0  0  0  0  0
   27.9817  -20.1967   -7.8312 C   0  0  0  0  0  0  0  0  0  0  0  0
   24.2298  -20.1890  -11.1447 C   0  0  0  0  0  0  0  0  0  0  0  0
   23.7163  -19.0644  -11.1480 O   0  0  0  0  0  0  0  0  0  0  0  0
   17.8528  -24.5433  -11.9178 N   0  0  0  0  0  0  0  0  0  0  0  0
   17.6104  -24.2861  -13.2994 C   0  0  0  0  0  0  0  0  0  0  0  0
   16.4132  -24.2706  -13.7456 N   0  0  0  0  0  0  0  0  0  0  0  0
   18.7143  -24.0501  -14.1601 N   0  0  0  0  0  0  0  0  0  0  0  0
   20.0790  -24.0624  -13.6540 C   0  0  0  0  0  0  0  0  0  0  0  0
   20.3444  -22.7483  -12.9982 C   0  0  0  0  0  0  0  0  0  0  0  0
   21.7375  -22.5609  -12.5214 C   0  0  0  0  0  0  0  0  0  0  0  0
   22.0429  -21.2263  -11.9036 C   0  0  2  0  0  0  0  0  0  0  0  0
   23.4313  -21.3192  -11.4443 N   0  0  0  0  0  0  0  0  0  0  0  0
   21.1940  -21.1004  -10.6864 C   0  0  0  0  0  0  0  0  0  0  0  0
   21.6125  -21.4321   -9.5419 O   0  0  0  0  0  0  0  0  0  0  0  0
   19.9200  -20.6129  -10.7894 O   0  0  0  0  0  0  0  0  0  0  0  0
  2  1  1  0
  3  2  1  0
  3  4  1  6
  5  3  1  0
  5  6  1  1
  7  5  1  0
  8  7  2  0
  9  7  1  0
 10  9  1  0
 10 11  1  1
 12 11  1  0
 13 12  2  0
 14 13  1  0
 15 14  1  0
 15 20  2  0
 16 17  2  0
 16 15  1  0
 17 18  1  0
 18 19  2  0
 20 19  1  0
 20 12  1  0
 21 10  1  0
 21 31  1  0
 22 21  2  0
 23 24  1  0
 24 26  1  0
 24 25  2  0
 26 27  1  0
 28 27  1  0
 28 29  1  0
 30 31  1  0
 30 29  1  1
 30 32  1  0
 32 33  2  0
 32 34  1  0
M  END
$$$$
