CGK.pdb
     RDKit          3D

 20 19  0  0  1  0  0  0  0  0999 V2000
    5.9690  -13.7367   25.7952 N   0  0  0  0  0  0  0  0  0  0  0  0
    6.3719  -12.4790   25.2207 C   0  0  1  0  0  0  0  0  0  0  0  0
    7.2070  -11.7226   26.2222 C   0  0  0  0  0  0  0  0  0  0  0  0
    6.3928  -11.6405   27.8426 S   0  0  0  0  0  0  0  0  0  0  0  0
    7.2241  -12.7395   24.0332 C   0  0  0  0  0  0  0  0  0  0  0  0
    7.8971  -11.8139   23.4931 O   0  0  0  0  0  0  0  0  0  0  0  0
    7.3011  -14.0408   23.4768 N   0  0  0  0  0  0  0  0  0  0  0  0
    8.0969  -14.3570   22.3101 C   0  0  0  0  0  0  0  0  0  0  0  0
    9.2821  -15.1215   22.7362 C   0  0  0  0  0  0  0  0  0  0  0  0
   10.1075  -15.4999   21.8773 O   0  0  0  0  0  0  0  0  0  0  0  0
    9.4827  -15.4217   24.0891 N   0  0  0  0  0  0  0  0  0  0  0  0
   10.5430  -16.3183   24.4937 C   0  0  1  0  0  0  0  0  0  0  0  0
   10.3540  -16.8467   25.8820 C   0  0  0  0  0  0  0  0  0  0  0  0
   11.3743  -17.8093   26.3382 C   0  0  0  0  0  0  0  0  0  0  0  0
   11.2007  -18.3829   27.6998 C   0  0  0  0  0  0  0  0  0  0  0  0
   12.3202  -19.3724   28.0216 C   0  0  0  0  0  0  0  0  0  0  0  0
   11.9688  -20.0033   29.2724 N   0  0  0  0  0  0  0  0  0  0  0  0
   10.7627  -17.3705   23.4791 C   0  0  0  0  0  0  0  0  0  0  0  0
   12.0541  -17.6653   23.0248 O   0  0  0  0  0  0  0  0  0  0  0  0
    9.8203  -18.0366   22.9905 O   0  0  0  0  0  0  0  0  0  0  0  0
  2  1  1  1
  3  2  1  0
  4  3  1  0
  5  6  2  0
  5  2  1  0
  7  5  1  0
  8  7  1  0
  9 11  1  0
  9  8  1  0
 10  9  2  0
 12 11  1  0
 12 13  1  1
 13 14  1  0
 14 15  1  0
 15 16  1  0
 16 17  1  0
 18 12  1  0
 19 18  1  0
 20 18  2  0
M  END
$$$$
