CGK.pdb
     RDKit          3D

 20 19  0  0  1  0  0  0  0  0999 V2000
    8.6333  -15.7681   19.2959 N   0  0  0  0  0  0  0  0  0  0  0  0
    8.1439  -14.8606   20.3014 C   0  0  1  0  0  0  0  0  0  0  0  0
    7.4306  -13.7152   19.6292 C   0  0  0  0  0  0  0  0  0  0  0  0
    8.5894  -12.4117   19.1257 S   0  0  0  0  0  0  0  0  0  0  0  0
    7.1530  -15.5676   21.1514 C   0  0  0  0  0  0  0  0  0  0  0  0
    6.1218  -16.1026   20.6498 O   0  0  0  0  0  0  0  0  0  0  0  0
    7.3446  -15.6580   22.5529 N   0  0  0  0  0  0  0  0  0  0  0  0
    6.3320  -16.1547   23.4598 C   0  0  0  0  0  0  0  0  0  0  0  0
    6.7932  -15.9516   24.8443 C   0  0  0  0  0  0  0  0  0  0  0  0
    6.7501  -16.9063   25.6498 O   0  0  0  0  0  0  0  0  0  0  0  0
    7.2749  -14.7025   25.2545 N   0  0  0  0  0  0  0  0  0  0  0  0
    7.9581  -14.5580   26.5210 C   0  0  1  0  0  0  0  0  0  0  0  0
    9.1863  -15.4094   26.6150 C   0  0  0  0  0  0  0  0  0  0  0  0
    9.4258  -16.0338   27.9297 C   0  0  0  0  0  0  0  0  0  0  0  0
   10.6066  -16.9312   28.0462 C   0  0  0  0  0  0  0  0  0  0  0  0
   10.7834  -17.4160   29.4848 C   0  0  0  0  0  0  0  0  0  0  0  0
   11.9435  -18.2762   29.4927 N   0  0  0  0  0  0  0  0  0  0  0  0
    8.1936  -13.1333   26.8362 C   0  0  0  0  0  0  0  0  0  0  0  0
    8.3943  -12.7186   28.1586 O   0  0  0  0  0  0  0  0  0  0  0  0
    8.2268  -12.2482   25.9496 O   0  0  0  0  0  0  0  0  0  0  0  0
  2  1  1  6
  3  2  1  0
  4  3  1  0
  5  6  2  0
  5  2  1  0
  7  5  1  0
  8  7  1  0
  9 11  1  0
  9  8  1  0
 10  9  2  0
 12 11  1  0
 12 13  1  6
 13 14  1  0
 14 15  1  0
 15 16  1  0
 16 17  1  0
 18 12  1  0
 19 18  1  0
 20 18  2  0
M  END
$$$$
