CGK.pdb
     RDKit          3D

 20 19  0  0  1  0  0  0  0  0999 V2000
    7.3904  -20.3002   22.4908 N   0  0  0  0  0  0  0  0  0  0  0  0
    6.3382  -19.3661   22.7984 C   0  0  1  0  0  0  0  0  0  0  0  0
    6.1764  -19.2783   24.2946 C   0  0  0  0  0  0  0  0  0  0  0  0
    7.0584  -20.6207   25.1405 S   0  0  0  0  0  0  0  0  0  0  0  0
    6.7280  -18.0191   22.3107 C   0  0  0  0  0  0  0  0  0  0  0  0
    6.0273  -16.9985   22.5729 O   0  0  0  0  0  0  0  0  0  0  0  0
    7.9022  -17.8488   21.5354 N   0  0  0  0  0  0  0  0  0  0  0  0
    8.3735  -16.5563   21.0861 C   0  0  0  0  0  0  0  0  0  0  0  0
    9.2837  -16.0023   22.1037 C   0  0  0  0  0  0  0  0  0  0  0  0
   10.1280  -15.1444   21.7673 O   0  0  0  0  0  0  0  0  0  0  0  0
    9.2045  -16.4319   23.4340 N   0  0  0  0  0  0  0  0  0  0  0  0
   10.1330  -15.9324   24.4241 C   0  0  1  0  0  0  0  0  0  0  0  0
    9.5176  -15.8118   25.7839 C   0  0  0  0  0  0  0  0  0  0  0  0
   10.4645  -15.5735   26.8894 C   0  0  0  0  0  0  0  0  0  0  0  0
    9.8968  -15.5098   28.2630 C   0  0  0  0  0  0  0  0  0  0  0  0
   10.9807  -15.1710   29.2860 C   0  0  0  0  0  0  0  0  0  0  0  0
   10.3342  -15.1306   30.5768 N   0  0  0  0  0  0  0  0  0  0  0  0
   11.3932  -16.7045   24.4054 C   0  0  0  0  0  0  0  0  0  0  0  0
   11.3726  -18.1027   24.3310 O   0  0  0  0  0  0  0  0  0  0  0  0
   12.5173  -16.1523   24.4515 O   0  0  0  0  0  0  0  0  0  0  0  0
  2  1  1  1
  3  2  1  0
  4  3  1  0
  5  6  2  0
  5  2  1  0
  7  5  1  0
  8  7  1  0
  9 11  1  0
  9  8  1  0
 10  9  2  0
 12 11  1  0
 12 13  1  1
 13 14  1  0
 14 15  1  0
 15 16  1  0
 16 17  1  0
 18 12  1  0
 19 18  1  0
 20 18  2  0
M  END
$$$$
