CGK.pdb
     RDKit          3D

 20 19  0  0  1  0  0  0  0  0999 V2000
    8.3678  -12.6841   18.1150 N   0  0  0  0  0  0  0  0  0  0  0  0
    9.1361  -13.5371   18.9847 C   0  0  1  0  0  0  0  0  0  0  0  0
    8.2009  -14.4546   19.7303 C   0  0  0  0  0  0  0  0  0  0  0  0
    7.1489  -13.5356   20.8897 S   0  0  0  0  0  0  0  0  0  0  0  0
   10.0340  -14.3859   18.1616 C   0  0  0  0  0  0  0  0  0  0  0  0
   10.1689  -14.1858   16.9194 O   0  0  0  0  0  0  0  0  0  0  0  0
   10.7636  -15.4458   18.7561 N   0  0  0  0  0  0  0  0  0  0  0  0
   12.1935  -15.3977   18.9740 C   0  0  0  0  0  0  0  0  0  0  0  0
   12.4568  -15.4827   20.4211 C   0  0  0  0  0  0  0  0  0  0  0  0
   13.5076  -14.9871   20.8820 O   0  0  0  0  0  0  0  0  0  0  0  0
   11.5400  -16.1118   21.2722 N   0  0  0  0  0  0  0  0  0  0  0  0
   11.8442  -16.2938   22.6744 C   0  0  1  0  0  0  0  0  0  0  0  0
   10.6150  -16.3884   23.5243 C   0  0  0  0  0  0  0  0  0  0  0  0
    9.7574  -15.1883   23.5346 C   0  0  0  0  0  0  0  0  0  0  0  0
    8.4907  -15.2701   24.3104 C   0  0  0  0  0  0  0  0  0  0  0  0
    7.7545  -13.9307   24.2953 C   0  0  0  0  0  0  0  0  0  0  0  0
    6.5893  -14.0888   25.1338 N   0  0  0  0  0  0  0  0  0  0  0  0
   12.7927  -17.4103   22.8700 C   0  0  0  0  0  0  0  0  0  0  0  0
   13.0620  -18.3085   21.8300 O   0  0  0  0  0  0  0  0  0  0  0  0
   13.3906  -17.5984   23.9552 O   0  0  0  0  0  0  0  0  0  0  0  0
  2  1  1  6
  3  2  1  0
  4  3  1  0
  5  6  2  0
  5  2  1  0
  7  5  1  0
  8  7  1  0
  9 11  1  0
  9  8  1  0
 10  9  2  0
 12 11  1  0
 12 13  1  1
 13 14  1  0
 14 15  1  0
 15 16  1  0
 16 17  1  0
 18 12  1  0
 19 18  1  0
 20 18  2  0
M  END
$$$$
