CGK.pdb
     RDKit          3D

 20 19  0  0  1  0  0  0  0  0999 V2000
    7.8849  -16.1906   18.4532 N   0  0  0  0  0  0  0  0  0  0  0  0
    8.8457  -15.2901   19.0365 C   0  0  1  0  0  0  0  0  0  0  0  0
    8.1641  -13.9875   19.3700 C   0  0  0  0  0  0  0  0  0  0  0  0
    7.5712  -13.1437   17.8761 S   0  0  0  0  0  0  0  0  0  0  0  0
    9.3457  -15.8719   20.3076 C   0  0  0  0  0  0  0  0  0  0  0  0
    8.5757  -16.5060   21.0863 O   0  0  0  0  0  0  0  0  0  0  0  0
   10.7065  -15.7271   20.6768 N   0  0  0  0  0  0  0  0  0  0  0  0
   11.1605  -14.7769   21.6695 C   0  0  0  0  0  0  0  0  0  0  0  0
   10.9851  -15.3676   23.0078 C   0  0  0  0  0  0  0  0  0  0  0  0
   11.9849  -15.7966   23.6232 O   0  0  0  0  0  0  0  0  0  0  0  0
    9.7121  -15.4481   23.5853 N   0  0  0  0  0  0  0  0  0  0  0  0
    9.5609  -15.7445   24.9929 C   0  0  1  0  0  0  0  0  0  0  0  0
    8.2419  -15.2935   25.5395 C   0  0  0  0  0  0  0  0  0  0  0  0
    8.0187  -13.8355   25.5345 C   0  0  0  0  0  0  0  0  0  0  0  0
    6.6958  -13.3530   26.0144 C   0  0  0  0  0  0  0  0  0  0  0  0
    6.6458  -11.8255   26.0317 C   0  0  0  0  0  0  0  0  0  0  0  0
    5.4032  -11.4588   26.6699 N   0  0  0  0  0  0  0  0  0  0  0  0
    9.8692  -17.1630   25.2714 C   0  0  0  0  0  0  0  0  0  0  0  0
   10.2262  -17.5759   26.5610 O   0  0  0  0  0  0  0  0  0  0  0  0
    9.8227  -18.0451   24.3825 O   0  0  0  0  0  0  0  0  0  0  0  0
  2  1  1  1
  3  2  1  0
  4  3  1  0
  5  6  2  0
  5  2  1  0
  7  5  1  0
  8  7  1  0
  9 11  1  0
  9  8  1  0
 10  9  2  0
 12 11  1  0
 12 13  1  6
 13 14  1  0
 14 15  1  0
 15 16  1  0
 16 17  1  0
 18 12  1  0
 19 18  1  0
 20 18  2  0
M  END
$$$$
