VQF.pdb
     RDKit          3D

 28 28  0  0  1  0  0  0  0  0999 V2000
    6.9954  -12.6961   19.2663 C   0  0  0  0  0  0  0  0  0  0  0  0
    7.4879  -13.5401   20.3857 C   0  0  2  0  0  0  0  0  0  0  0  0
    8.2761  -12.7151   21.3735 C   0  0  0  0  0  0  0  0  0  0  0  0
    8.2268  -14.7889   19.9762 C   0  0  2  0  0  0  0  0  0  0  0  0
    7.3494  -15.4952   19.0253 N   0  0  0  0  0  0  0  0  0  0  0  0
    8.4799  -15.7298   21.0888 C   0  0  0  0  0  0  0  0  0  0  0  0
    7.5380  -16.4097   21.5478 O   0  0  0  0  0  0  0  0  0  0  0  0
   14.2517  -18.4558   23.7510 N   0  0  0  0  0  0  0  0  0  0  0  0
   13.1131  -19.0516   23.1482 C   0  0  0  0  0  0  0  0  0  0  0  0
   13.2396  -20.0245   22.3684 O   0  0  0  0  0  0  0  0  0  0  0  0
   11.7931  -18.4977   23.4635 C   0  0  0  0  0  0  0  0  0  0  0  0
   11.4394  -17.4313   22.4437 C   0  0  0  0  0  0  0  0  0  0  0  0
   10.0175  -16.9384   22.6872 C   0  0  2  0  0  0  0  0  0  0  0  0
    9.7574  -15.9220   21.6910 N   0  0  0  0  0  0  0  0  0  0  0  0
   10.0198  -16.3425   24.0677 C   0  0  0  0  0  0  0  0  0  0  0  0
   10.7781  -15.3637   24.3035 O   0  0  0  0  0  0  0  0  0  0  0  0
    9.2129  -16.8315   25.1028 N   0  0  0  0  0  0  0  0  0  0  0  0
    9.3563  -16.4318   26.5051 C   0  0  1  0  0  0  0  0  0  0  0  0
    8.0606  -15.8028   26.9262 C   0  0  0  0  0  0  0  0  0  0  0  0
    7.9810  -14.3483   26.6593 C   0  0  0  0  0  0  0  0  0  0  0  0
    6.8937  -13.8381   25.9863 C   0  0  0  0  0  0  0  0  0  0  0  0
    6.8279  -12.4662   25.7437 C   0  0  0  0  0  0  0  0  0  0  0  0
    7.8186  -11.5968   26.1559 C   0  0  0  0  0  0  0  0  0  0  0  0
    8.9027  -12.1184   26.8287 C   0  0  0  0  0  0  0  0  0  0  0  0
    8.9744  -13.4763   27.0725 C   0  0  0  0  0  0  0  0  0  0  0  0
    9.6971  -17.6464   27.2844 C   0  0  0  0  0  0  0  0  0  0  0  0
    9.8361  -18.8996   26.6676 O   0  0  0  0  0  0  0  0  0  0  0  0
    9.8821  -17.6397   28.5284 O   0  0  0  0  0  0  0  0  0  0  0  0
  2  1  1  6
  2  4  1  0
  2  3  1  0
  4  5  1  6
  6  4  1  0
  6 14  1  0
  7  6  2  0
  8  9  1  0
  9 11  1  0
  9 10  2  0
 11 12  1  0
 13 12  1  6
 13 14  1  0
 15 13  1  0
 16 15  2  0
 17 15  1  0
 18 17  1  0
 18 26  1  0
 18 19  1  1
 20 25  2  0
 20 19  1  0
 21 20  1  0
 22 23  1  0
 22 21  2  0
 23 24  2  0
 24 25  1  0
 26 27  1  0
 28 26  2  0
M  END
$$$$
