VQF.pdb
     RDKit          3D

 28 28  0  0  1  0  0  0  0  0999 V2000
    7.4570  -12.6092   18.9235 C   0  0  0  0  0  0  0  0  0  0  0  0
    7.8632  -13.6047   19.9492 C   0  0  2  0  0  0  0  0  0  0  0  0
    8.6387  -12.9430   21.0621 C   0  0  0  0  0  0  0  0  0  0  0  0
    8.5684  -14.8273   19.4188 C   0  0  2  0  0  0  0  0  0  0  0  0
    7.7169  -15.3601   18.3400 N   0  0  0  0  0  0  0  0  0  0  0  0
    8.7150  -15.9144   20.4107 C   0  0  0  0  0  0  0  0  0  0  0  0
    7.6972  -16.4919   20.8476 O   0  0  0  0  0  0  0  0  0  0  0  0
   12.3003  -20.2849   20.3930 N   0  0  0  0  0  0  0  0  0  0  0  0
   12.3361  -19.0699   19.6601 C   0  0  0  0  0  0  0  0  0  0  0  0
   12.8080  -19.0385   18.4995 O   0  0  0  0  0  0  0  0  0  0  0  0
   11.8075  -17.8607   20.2979 C   0  0  0  0  0  0  0  0  0  0  0  0
   11.2671  -18.2128   21.6713 C   0  0  0  0  0  0  0  0  0  0  0  0
   10.0905  -17.3043   22.0094 C   0  0  2  0  0  0  0  0  0  0  0  0
    9.9694  -16.3633   20.9172 N   0  0  0  0  0  0  0  0  0  0  0  0
   10.4692  -16.5975   23.2815 C   0  0  0  0  0  0  0  0  0  0  0  0
   11.1392  -15.5327   23.2062 O   0  0  0  0  0  0  0  0  0  0  0  0
   10.1072  -17.0753   24.5474 N   0  0  0  0  0  0  0  0  0  0  0  0
   10.0207  -16.2312   25.7419 C   0  0  1  0  0  0  0  0  0  0  0  0
    9.0640  -15.1167   25.4344 C   0  0  0  0  0  0  0  0  0  0  0  0
    8.7739  -14.2347   26.5880 C   0  0  0  0  0  0  0  0  0  0  0  0
    7.4963  -13.7572   26.7756 C   0  0  0  0  0  0  0  0  0  0  0  0
    7.2341  -12.9301   27.8675 C   0  0  0  0  0  0  0  0  0  0  0  0
    8.2142  -12.5708   28.7718 C   0  0  0  0  0  0  0  0  0  0  0  0
    9.4897  -13.0544   28.5743 C   0  0  0  0  0  0  0  0  0  0  0  0
    9.7566  -13.8742   27.4949 C   0  0  0  0  0  0  0  0  0  0  0  0
    9.5761  -17.0900   26.8660 C   0  0  0  0  0  0  0  0  0  0  0  0
   10.2033  -17.0402   28.1207 O   0  0  0  0  0  0  0  0  0  0  0  0
    8.6245  -17.9074   26.7764 O   0  0  0  0  0  0  0  0  0  0  0  0
  2  1  1  6
  2  4  1  0
  2  3  1  0
  4  5  1  6
  6  4  1  0
  6 14  1  0
  7  6  2  0
  8  9  1  0
  9 11  1  0
  9 10  2  0
 11 12  1  0
 13 12  1  6
 13 14  1  0
 15 13  1  0
 16 15  2  0
 17 15  1  0
 18 17  1  0
 18 26  1  0
 18 19  1  6
 20 25  2  0
 20 19  1  0
 21 20  1  0
 22 23  1  0
 22 21  2  0
 23 24  2  0
 24 25  1  0
 26 27  1  0
 28 26  2  0
M  END
$$$$
