VQF.pdb
     RDKit          3D

 28 28  0  0  1  0  0  0  0  0999 V2000
    7.8252  -12.7587   18.7188 C   0  0  0  0  0  0  0  0  0  0  0  0
    7.9792  -13.4913   20.0024 C   0  0  2  0  0  0  0  0  0  0  0  0
    8.8254  -12.7032   20.9722 C   0  0  0  0  0  0  0  0  0  0  0  0
    8.4444  -14.9201   19.8787 C   0  0  2  0  0  0  0  0  0  0  0  0
    7.5129  -15.5786   18.9450 N   0  0  0  0  0  0  0  0  0  0  0  0
    8.3792  -15.6851   21.1426 C   0  0  0  0  0  0  0  0  0  0  0  0
    7.2680  -16.0216   21.6032 O   0  0  0  0  0  0  0  0  0  0  0  0
   10.5434  -20.8790   22.8127 N   0  0  0  0  0  0  0  0  0  0  0  0
   10.0071  -20.2112   21.6808 C   0  0  0  0  0  0  0  0  0  0  0  0
   10.0945  -20.7203   20.5389 O   0  0  0  0  0  0  0  0  0  0  0  0
    9.3521  -18.9162   21.8869 C   0  0  0  0  0  0  0  0  0  0  0  0
   10.1081  -18.1339   22.9447 C   0  0  0  0  0  0  0  0  0  0  0  0
    9.4423  -16.7788   23.1559 C   0  0  2  0  0  0  0  0  0  0  0  0
    9.5256  -16.0775   21.8932 N   0  0  0  0  0  0  0  0  0  0  0  0
   10.2581  -16.0797   24.2080 C   0  0  0  0  0  0  0  0  0  0  0  0
   11.4652  -15.8144   23.9611 O   0  0  0  0  0  0  0  0  0  0  0  0
    9.7301  -15.7112   25.4519 N   0  0  0  0  0  0  0  0  0  0  0  0
   10.5464  -15.2544   26.5797 C   0  0  1  0  0  0  0  0  0  0  0  0
   10.2804  -13.7886   26.7602 C   0  0  0  0  0  0  0  0  0  0  0  0
    8.9087  -13.3737   26.3871 C   0  0  0  0  0  0  0  0  0  0  0  0
    8.5058  -13.4565   25.0733 C   0  0  0  0  0  0  0  0  0  0  0  0
    7.2105  -13.0661   24.7343 C   0  0  0  0  0  0  0  0  0  0  0  0
    6.3129  -12.5971   25.6733 C   0  0  0  0  0  0  0  0  0  0  0  0
    6.7267  -12.5182   26.9857 C   0  0  0  0  0  0  0  0  0  0  0  0
    8.0083  -12.9033   27.3286 C   0  0  0  0  0  0  0  0  0  0  0  0
   10.1713  -16.0668   27.7621 C   0  0  0  0  0  0  0  0  0  0  0  0
    9.2066  -17.0830   27.6787 O   0  0  0  0  0  0  0  0  0  0  0  0
   10.6808  -15.9058   28.9006 O   0  0  0  0  0  0  0  0  0  0  0  0
  2  1  1  6
  2  4  1  0
  2  3  1  0
  4  5  1  6
  6  4  1  0
  6 14  1  0
  7  6  2  0
  8  9  1  0
  9 11  1  0
  9 10  2  0
 11 12  1  0
 13 12  1  6
 13 14  1  0
 15 13  1  0
 16 15  2  0
 17 15  1  0
 18 17  1  0
 18 26  1  0
 18 19  1  1
 20 25  2  0
 20 19  1  0
 21 20  1  0
 22 23  1  0
 22 21  2  0
 23 24  2  0
 24 25  1  0
 26 27  1  0
 28 26  2  0
M  END
$$$$
