VQF.pdb
     RDKit          3D

 28 28  0  0  1  0  0  0  0  0999 V2000
    7.7476  -12.6949   17.9730 C   0  0  0  0  0  0  0  0  0  0  0  0
    8.0283  -13.4346   19.2308 C   0  0  2  0  0  0  0  0  0  0  0  0
    9.0176  -12.6821   20.0868 C   0  0  0  0  0  0  0  0  0  0  0  0
    8.4175  -14.8807   19.0564 C   0  0  2  0  0  0  0  0  0  0  0  0
    7.3738  -15.4907   18.2128 N   0  0  0  0  0  0  0  0  0  0  0  0
    8.4399  -15.6535   20.3171 C   0  0  0  0  0  0  0  0  0  0  0  0
    7.3713  -15.8710   20.9262 O   0  0  0  0  0  0  0  0  0  0  0  0
   12.7232  -20.1885   23.6390 N   0  0  0  0  0  0  0  0  0  0  0  0
   11.5170  -20.1321   22.8928 C   0  0  0  0  0  0  0  0  0  0  0  0
   11.2426  -21.0231   22.0553 O   0  0  0  0  0  0  0  0  0  0  0  0
   10.6080  -19.0070   23.1302 C   0  0  0  0  0  0  0  0  0  0  0  0
   10.6502  -18.0675   21.9395 C   0  0  0  0  0  0  0  0  0  0  0  0
    9.6288  -16.9516   22.1285 C   0  0  2  0  0  0  0  0  0  0  0  0
    9.6266  -16.1832   20.9027 N   0  0  0  0  0  0  0  0  0  0  0  0
   10.1343  -16.1219   23.2761 C   0  0  0  0  0  0  0  0  0  0  0  0
   10.9946  -15.2301   23.0457 O   0  0  0  0  0  0  0  0  0  0  0  0
    9.6873  -16.3002   24.5914 N   0  0  0  0  0  0  0  0  0  0  0  0
   10.1058  -15.4576   25.7148 C   0  0  1  0  0  0  0  0  0  0  0  0
    9.6638  -14.0559   25.4120 C   0  0  0  0  0  0  0  0  0  0  0  0
    8.3600  -13.6912   26.0121 C   0  0  0  0  0  0  0  0  0  0  0  0
    8.3277  -13.0073   27.2065 C   0  0  0  0  0  0  0  0  0  0  0  0
    7.0940  -12.6661   27.7603 C   0  0  0  0  0  0  0  0  0  0  0  0
    5.8978  -12.9912   27.1513 C   0  0  0  0  0  0  0  0  0  0  0  0
    5.9419  -13.6760   25.9560 C   0  0  0  0  0  0  0  0  0  0  0  0
    7.1604  -14.0171   25.4016 C   0  0  0  0  0  0  0  0  0  0  0  0
    9.4901  -16.0122   26.9444 C   0  0  0  0  0  0  0  0  0  0  0  0
    8.6105  -17.1051   26.8964 O   0  0  0  0  0  0  0  0  0  0  0  0
    9.7080  -15.5518   28.0943 O   0  0  0  0  0  0  0  0  0  0  0  0
  2  1  1  6
  2  4  1  0
  2  3  1  0
  4  5  1  6
  6  4  1  0
  6 14  1  0
  7  6  2  0
  8  9  1  0
  9 11  1  0
  9 10  2  0
 11 12  1  0
 13 12  1  6
 13 14  1  0
 15 13  1  0
 16 15  2  0
 17 15  1  0
 18 17  1  0
 18 26  1  0
 18 19  1  6
 20 25  2  0
 20 19  1  0
 21 20  1  0
 22 23  1  0
 22 21  2  0
 23 24  2  0
 24 25  1  0
 26 27  1  0
 28 26  2  0
M  END
$$$$
