VQF.pdb
     RDKit          3D

 28 28  0  0  1  0  0  0  0  0999 V2000
    7.6655  -13.3084   19.9285 C   0  0  0  0  0  0  0  0  0  0  0  0
    8.7749  -13.6296   18.9937 C   0  0  2  0  0  0  0  0  0  0  0  0
    8.6733  -12.8023   17.7355 C   0  0  0  0  0  0  0  0  0  0  0  0
    8.9617  -15.0951   18.6924 C   0  0  2  0  0  0  0  0  0  0  0  0
    7.7949  -15.5040   17.8897 N   0  0  0  0  0  0  0  0  0  0  0  0
    8.9668  -15.9596   19.8922 C   0  0  0  0  0  0  0  0  0  0  0  0
    7.8836  -16.2868   20.4212 O   0  0  0  0  0  0  0  0  0  0  0  0
   10.1097  -20.4825   23.6878 N   0  0  0  0  0  0  0  0  0  0  0  0
   11.2750  -19.9858   23.0473 C   0  0  0  0  0  0  0  0  0  0  0  0
   11.9958  -20.7437   22.3570 O   0  0  0  0  0  0  0  0  0  0  0  0
   11.6073  -18.5684   23.2169 C   0  0  0  0  0  0  0  0  0  0  0  0
   11.5017  -17.8641   21.8771 C   0  0  0  0  0  0  0  0  0  0  0  0
   10.1533  -17.1606   21.7709 C   0  0  2  0  0  0  0  0  0  0  0  0
   10.1523  -16.4608   20.5047 N   0  0  0  0  0  0  0  0  0  0  0  0
   10.1059  -16.1880   22.9168 C   0  0  0  0  0  0  0  0  0  0  0  0
   11.0036  -15.3074   23.0011 O   0  0  0  0  0  0  0  0  0  0  0  0
    9.1037  -16.2214   23.8947 N   0  0  0  0  0  0  0  0  0  0  0  0
    8.9618  -15.2146   24.9497 C   0  0  1  0  0  0  0  0  0  0  0  0
    7.7394  -14.4038   24.6334 C   0  0  0  0  0  0  0  0  0  0  0  0
    7.3932  -13.4043   25.6699 C   0  0  0  0  0  0  0  0  0  0  0  0
    6.2093  -13.5238   26.3624 C   0  0  0  0  0  0  0  0  0  0  0  0
    5.8954  -12.5785   27.3387 C   0  0  0  0  0  0  0  0  0  0  0  0
    6.7331  -11.5218   27.6374 C   0  0  0  0  0  0  0  0  0  0  0  0
    7.9157  -11.4119   26.9379 C   0  0  0  0  0  0  0  0  0  0  0  0
    8.2330  -12.3446   25.9696 C   0  0  0  0  0  0  0  0  0  0  0  0
    8.8688  -15.9321   26.2440 C   0  0  0  0  0  0  0  0  0  0  0  0
    9.3996  -15.3889   27.4245 O   0  0  0  0  0  0  0  0  0  0  0  0
    8.3188  -17.0558   26.3730 O   0  0  0  0  0  0  0  0  0  0  0  0
  2  1  1  6
  2  4  1  0
  2  3  1  0
  4  5  1  6
  6  4  1  0
  6 14  1  0
  7  6  2  0
  8  9  1  0
  9 11  1  0
  9 10  2  0
 11 12  1  0
 13 12  1  1
 13 14  1  0
 15 13  1  0
 16 15  2  0
 17 15  1  0
 18 17  1  0
 18 26  1  0
 18 19  1  6
 20 25  2  0
 20 19  1  0
 21 20  1  0
 22 23  1  0
 22 21  2  0
 23 24  2  0
 24 25  1  0
 26 27  1  0
 28 26  2  0
M  END
$$$$
