VQF.pdb
     RDKit          3D

 28 28  0  0  1  0  0  0  0  0999 V2000
    5.8651  -20.4927   22.3233 C   0  0  0  0  0  0  0  0  0  0  0  0
    6.6889  -19.2606   22.4300 C   0  0  2  0  0  0  0  0  0  0  0  0
    6.3142  -18.4690   23.6591 C   0  0  0  0  0  0  0  0  0  0  0  0
    6.7259  -18.3993   21.1931 C   0  0  2  0  0  0  0  0  0  0  0  0
    7.1080  -19.2888   20.0814 N   0  0  0  0  0  0  0  0  0  0  0  0
    7.7426  -17.3263   21.2378 C   0  0  0  0  0  0  0  0  0  0  0  0
    8.9508  -17.6158   21.1084 O   0  0  0  0  0  0  0  0  0  0  0  0
    9.6114  -13.5531   19.3594 N   0  0  0  0  0  0  0  0  0  0  0  0
    8.2770  -13.5969   18.8775 C   0  0  0  0  0  0  0  0  0  0  0  0
    8.0431  -13.5980   17.6462 O   0  0  0  0  0  0  0  0  0  0  0  0
    7.1880  -13.6405   19.8575 C   0  0  0  0  0  0  0  0  0  0  0  0
    7.7705  -13.5948   21.2578 C   0  0  0  0  0  0  0  0  0  0  0  0
    8.4450  -14.9241   21.5777 C   0  0  2  0  0  0  0  0  0  0  0  0
    7.4339  -15.9471   21.4223 N   0  0  0  0  0  0  0  0  0  0  0  0
    8.8871  -14.8260   23.0116 C   0  0  0  0  0  0  0  0  0  0  0  0
    9.8713  -14.0907   23.2929 O   0  0  0  0  0  0  0  0  0  0  0  0
    8.2488  -15.5193   24.0478 N   0  0  0  0  0  0  0  0  0  0  0  0
    8.7277  -15.5354   25.4324 C   0  0  1  0  0  0  0  0  0  0  0  0
    7.5712  -15.1571   26.3106 C   0  0  0  0  0  0  0  0  0  0  0  0
    7.3833  -13.6963   26.4652 C   0  0  0  0  0  0  0  0  0  0  0  0
    8.4704  -12.8942   26.7299 C   0  0  0  0  0  0  0  0  0  0  0  0
    8.2818  -11.5194   26.8701 C   0  0  0  0  0  0  0  0  0  0  0  0
    7.0381  -10.9306   26.7524 C   0  0  0  0  0  0  0  0  0  0  0  0
    5.9566  -11.7431   26.4874 C   0  0  0  0  0  0  0  0  0  0  0  0
    6.1361  -13.1056   26.3473 C   0  0  0  0  0  0  0  0  0  0  0  0
    9.2520  -16.8946   25.7093 C   0  0  0  0  0  0  0  0  0  0  0  0
    9.8836  -17.2045   26.9239 O   0  0  0  0  0  0  0  0  0  0  0  0
    9.1694  -17.8467   24.8917 O   0  0  0  0  0  0  0  0  0  0  0  0
  2  1  1  6
  2  4  1  0
  2  3  1  0
  4  5  1  6
  6  4  1  0
  6 14  1  0
  7  6  2  0
  8  9  1  0
  9 11  1  0
  9 10  2  0
 11 12  1  0
 13 12  1  1
 13 14  1  0
 15 13  1  0
 16 15  2  0
 17 15  1  0
 18 17  1  0
 18 26  1  0
 18 19  1  1
 20 25  2  0
 20 19  1  0
 21 20  1  0
 22 23  1  0
 22 21  2  0
 23 24  2  0
 24 25  1  0
 26 27  1  0
 28 26  2  0
M  END
$$$$
