VQF.pdb
     RDKit          3D

 28 28  0  0  1  0  0  0  0  0999 V2000
    7.4564  -12.6390   18.1920 C   0  0  0  0  0  0  0  0  0  0  0  0
    7.9042  -13.4898   19.3249 C   0  0  2  0  0  0  0  0  0  0  0  0
    8.7488  -12.6959   20.2915 C   0  0  0  0  0  0  0  0  0  0  0  0
    8.5620  -14.7895   18.9359 C   0  0  2  0  0  0  0  0  0  0  0  0
    7.6018  -15.4952   18.0681 N   0  0  0  0  0  0  0  0  0  0  0  0
    8.8345  -15.6905   20.0765 C   0  0  0  0  0  0  0  0  0  0  0  0
    7.8897  -16.3008   20.6196 O   0  0  0  0  0  0  0  0  0  0  0  0
   13.3884  -19.9803   21.2317 N   0  0  0  0  0  0  0  0  0  0  0  0
   12.8837  -19.1700   20.1813 C   0  0  0  0  0  0  0  0  0  0  0  0
   13.5275  -19.0342   19.1146 O   0  0  0  0  0  0  0  0  0  0  0  0
   11.5948  -18.5011   20.3809 C   0  0  0  0  0  0  0  0  0  0  0  0
   11.7337  -17.4600   21.4759 C   0  0  0  0  0  0  0  0  0  0  0  0
   10.3830  -16.8018   21.7339 C   0  0  2  0  0  0  0  0  0  0  0  0
   10.1343  -15.9192   20.6149 N   0  0  0  0  0  0  0  0  0  0  0  0
   10.5449  -16.0162   23.0058 C   0  0  0  0  0  0  0  0  0  0  0  0
   11.0785  -14.8757   22.9493 O   0  0  0  0  0  0  0  0  0  0  0  0
   10.1265  -16.5011   24.2514 N   0  0  0  0  0  0  0  0  0  0  0  0
    9.6871  -15.6417   25.3537 C   0  0  1  0  0  0  0  0  0  0  0  0
    8.6169  -14.7370   24.8170 C   0  0  0  0  0  0  0  0  0  0  0  0
    8.1092  -13.7530   25.8004 C   0  0  0  0  0  0  0  0  0  0  0  0
    6.7899  -13.3622   25.7536 C   0  0  0  0  0  0  0  0  0  0  0  0
    6.3221  -12.4375   26.6870 C   0  0  0  0  0  0  0  0  0  0  0  0
    7.1382  -11.8969   27.6612 C   0  0  0  0  0  0  0  0  0  0  0  0
    8.4573  -12.2950   27.6988 C   0  0  0  0  0  0  0  0  0  0  0  0
    8.9274  -13.2106   26.7774 C   0  0  0  0  0  0  0  0  0  0  0  0
    9.2130  -16.5234   26.4476 C   0  0  0  0  0  0  0  0  0  0  0  0
    9.5850  -16.3019   27.7828 O   0  0  0  0  0  0  0  0  0  0  0  0
    8.4591  -17.5125   26.2600 O   0  0  0  0  0  0  0  0  0  0  0  0
  2  1  1  6
  2  4  1  0
  2  3  1  0
  4  5  1  6
  6  4  1  0
  6 14  1  0
  7  6  2  0
  8  9  1  0
  9 11  1  0
  9 10  2  0
 11 12  1  0
 13 12  1  6
 13 14  1  0
 15 13  1  0
 16 15  2  0
 17 15  1  0
 18 17  1  0
 18 26  1  0
 18 19  1  6
 20 25  2  0
 20 19  1  0
 21 20  1  0
 22 23  1  0
 22 21  2  0
 23 24  2  0
 24 25  1  0
 26 27  1  0
 28 26  2  0
M  END
$$$$
