VQF.pdb
     RDKit          3D

 28 28  0  0  1  0  0  0  0  0999 V2000
    7.2979  -12.9856   21.8328 C   0  0  0  0  0  0  0  0  0  0  0  0
    8.2515  -13.1677   20.7080 C   0  0  2  0  0  0  0  0  0  0  0  0
    7.9342  -12.2209   19.5764 C   0  0  0  0  0  0  0  0  0  0  0  0
    8.4193  -14.5867   20.2269 C   0  0  2  0  0  0  0  0  0  0  0  0
    7.1507  -14.9537   19.5718 N   0  0  0  0  0  0  0  0  0  0  0  0
    8.6281  -15.5689   21.3126 C   0  0  0  0  0  0  0  0  0  0  0  0
    7.6400  -16.0653   21.8935 O   0  0  0  0  0  0  0  0  0  0  0  0
   11.2696  -20.6239   21.8646 N   0  0  0  0  0  0  0  0  0  0  0  0
   10.9002  -20.0007   23.0852 C   0  0  0  0  0  0  0  0  0  0  0  0
    9.9661  -20.4635   23.7808 O   0  0  0  0  0  0  0  0  0  0  0  0
   11.6400  -18.8068   23.5047 C   0  0  0  0  0  0  0  0  0  0  0  0
   11.4138  -17.6959   22.4963 C   0  0  0  0  0  0  0  0  0  0  0  0
   10.0979  -16.9877   22.7980 C   0  0  2  0  0  0  0  0  0  0  0  0
    9.9118  -16.0023   21.7552 N   0  0  0  0  0  0  0  0  0  0  0  0
   10.2864  -16.3213   24.1326 C   0  0  0  0  0  0  0  0  0  0  0  0
   11.1852  -15.4456   24.2507 O   0  0  0  0  0  0  0  0  0  0  0  0
    9.5030  -16.6347   25.2506 N   0  0  0  0  0  0  0  0  0  0  0  0
    9.6888  -16.0273   26.5710 C   0  0  1  0  0  0  0  0  0  0  0  0
    8.3278  -15.6811   27.1000 C   0  0  0  0  0  0  0  0  0  0  0  0
    7.7962  -14.3921   26.6011 C   0  0  0  0  0  0  0  0  0  0  0  0
    6.8506  -14.3872   25.6005 C   0  0  0  0  0  0  0  0  0  0  0  0
    6.3546  -13.1673   25.1410 C   0  0  0  0  0  0  0  0  0  0  0  0
    6.7797  -11.9583   25.6557 C   0  0  0  0  0  0  0  0  0  0  0  0
    7.7268  -11.9749   26.6570 C   0  0  0  0  0  0  0  0  0  0  0  0
    8.2224  -13.1796   27.1170 C   0  0  0  0  0  0  0  0  0  0  0  0
   10.4132  -17.0065   27.4166 C   0  0  0  0  0  0  0  0  0  0  0  0
   10.7368  -18.2877   26.9432 O   0  0  0  0  0  0  0  0  0  0  0  0
   10.7815  -16.7631   28.5942 O   0  0  0  0  0  0  0  0  0  0  0  0
  2  1  1  1
  2  4  1  0
  2  3  1  0
  4  5  1  1
  6  4  1  0
  6 14  1  0
  7  6  2  0
  8  9  1  0
  9 11  1  0
  9 10  2  0
 11 12  1  0
 13 12  1  6
 13 14  1  0
 15 13  1  0
 16 15  2  0
 17 15  1  0
 18 17  1  0
 18 26  1  0
 18 19  1  1
 20 25  2  0
 20 19  1  0
 21 20  1  0
 22 23  1  0
 22 21  2  0
 23 24  2  0
 24 25  1  0
 26 27  1  0
 28 26  2  0
M  END
$$$$
