VQF.pdb
     RDKit          3D

 28 28  0  0  1  0  0  0  0  0999 V2000
    7.6623  -12.3519   18.7143 C   0  0  0  0  0  0  0  0  0  0  0  0
    7.9516  -13.2392   19.8706 C   0  0  2  0  0  0  0  0  0  0  0  0
    8.7303  -12.5012   20.9320 C   0  0  0  0  0  0  0  0  0  0  0  0
    8.5829  -14.5643   19.5257 C   0  0  2  0  0  0  0  0  0  0  0  0
    7.7127  -15.1849   18.5105 N   0  0  0  0  0  0  0  0  0  0  0  0
    8.6457  -15.5132   20.6583 C   0  0  0  0  0  0  0  0  0  0  0  0
    7.6191  -16.1395   20.9957 O   0  0  0  0  0  0  0  0  0  0  0  0
   12.7498  -20.0779   21.6500 N   0  0  0  0  0  0  0  0  0  0  0  0
   11.4418  -19.6344   21.3229 C   0  0  0  0  0  0  0  0  0  0  0  0
   10.4903  -20.4474   21.2563 O   0  0  0  0  0  0  0  0  0  0  0  0
   11.2390  -18.2054   21.0670 C   0  0  0  0  0  0  0  0  0  0  0  0
   11.1955  -17.4600   22.3878 C   0  0  0  0  0  0  0  0  0  0  0  0
    9.8735  -16.7110   22.5123 C   0  0  2  0  0  0  0  0  0  0  0  0
    9.8270  -15.7718   21.4128 N   0  0  0  0  0  0  0  0  0  0  0  0
    9.9338  -15.9869   23.8288 C   0  0  0  0  0  0  0  0  0  0  0  0
    9.8768  -14.7278   23.8305 O   0  0  0  0  0  0  0  0  0  0  0  0
   10.0510  -16.6556   25.0539 N   0  0  0  0  0  0  0  0  0  0  0  0
    9.5022  -16.1482   26.3141 C   0  0  1  0  0  0  0  0  0  0  0  0
    8.0135  -16.0556   26.1491 C   0  0  0  0  0  0  0  0  0  0  0  0
    7.4909  -14.6701   26.1528 C   0  0  0  0  0  0  0  0  0  0  0  0
    6.3595  -14.3672   25.4291 C   0  0  0  0  0  0  0  0  0  0  0  0
    5.8745  -13.0597   25.4428 C   0  0  0  0  0  0  0  0  0  0  0  0
    6.4910  -12.0527   26.1593 C   0  0  0  0  0  0  0  0  0  0  0  0
    7.6231  -12.3669   26.8801 C   0  0  0  0  0  0  0  0  0  0  0  0
    8.1090  -13.6601   26.8711 C   0  0  0  0  0  0  0  0  0  0  0  0
    9.9143  -17.0815   27.3901 C   0  0  0  0  0  0  0  0  0  0  0  0
   10.5613  -18.2936   27.1028 O   0  0  0  0  0  0  0  0  0  0  0  0
    9.7173  -16.8574   28.6119 O   0  0  0  0  0  0  0  0  0  0  0  0
  2  1  1  6
  2  4  1  0
  2  3  1  0
  4  5  1  6
  6  4  1  0
  6 14  1  0
  7  6  2  0
  8  9  1  0
  9 11  1  0
  9 10  2  0
 11 12  1  0
 13 12  1  6
 13 14  1  0
 15 13  1  0
 16 15  2  0
 17 15  1  0
 18 17  1  0
 18 26  1  0
 18 19  1  6
 20 25  2  0
 20 19  1  0
 21 20  1  0
 22 23  1  0
 22 21  2  0
 23 24  2  0
 24 25  1  0
 26 27  1  0
 28 26  2  0
M  END
$$$$
