VQF.pdb
     RDKit          3D

 28 28  0  0  1  0  0  0  0  0999 V2000
    7.3176  -12.5578   18.2138 C   0  0  0  0  0  0  0  0  0  0  0  0
    7.7210  -13.5247   19.2675 C   0  0  2  0  0  0  0  0  0  0  0  0
    8.6226  -12.8667   20.2833 C   0  0  0  0  0  0  0  0  0  0  0  0
    8.2919  -14.8266   18.7649 C   0  0  2  0  0  0  0  0  0  0  0  0
    7.2756  -15.4042   17.8668 N   0  0  0  0  0  0  0  0  0  0  0  0
    8.5291  -15.8286   19.8264 C   0  0  0  0  0  0  0  0  0  0  0  0
    7.5561  -16.3520   20.4089 O   0  0  0  0  0  0  0  0  0  0  0  0
   13.1946  -19.7133   20.3381 N   0  0  0  0  0  0  0  0  0  0  0  0
   12.5518  -19.9912   21.5727 C   0  0  0  0  0  0  0  0  0  0  0  0
   12.9412  -20.9377   22.2960 O   0  0  0  0  0  0  0  0  0  0  0  0
   11.4257  -19.1427   21.9733 C   0  0  0  0  0  0  0  0  0  0  0  0
   11.1953  -18.0810   20.9140 C   0  0  0  0  0  0  0  0  0  0  0  0
   10.0415  -17.1774   21.3341 C   0  0  2  0  0  0  0  0  0  0  0  0
    9.8247  -16.2520   20.2433 N   0  0  0  0  0  0  0  0  0  0  0  0
   10.5147  -16.4508   22.5625 C   0  0  0  0  0  0  0  0  0  0  0  0
   11.4382  -15.6011   22.4455 O   0  0  0  0  0  0  0  0  0  0  0  0
    9.9702  -16.6804   23.8324 N   0  0  0  0  0  0  0  0  0  0  0  0
   10.4212  -15.9967   25.0473 C   0  0  1  0  0  0  0  0  0  0  0  0
    9.2149  -15.7803   25.9133 C   0  0  0  0  0  0  0  0  0  0  0  0
    9.5185  -15.1776   27.2315 C   0  0  0  0  0  0  0  0  0  0  0  0
    9.7728  -15.9935   28.3109 C   0  0  0  0  0  0  0  0  0  0  0  0
   10.0609  -15.4146   29.5466 C   0  0  0  0  0  0  0  0  0  0  0  0
   10.1005  -14.0460   29.7278 C   0  0  0  0  0  0  0  0  0  0  0  0
    9.8442  -13.2386   28.6405 C   0  0  0  0  0  0  0  0  0  0  0  0
    9.5581  -13.8052   27.4135 C   0  0  0  0  0  0  0  0  0  0  0  0
   11.4531  -16.8498   25.6846 C   0  0  0  0  0  0  0  0  0  0  0  0
   11.2593  -18.2288   25.8609 O   0  0  0  0  0  0  0  0  0  0  0  0
   12.5531  -16.4069   26.1038 O   0  0  0  0  0  0  0  0  0  0  0  0
  2  1  1  6
  2  4  1  0
  2  3  1  0
  4  5  1  6
  6  4  1  0
  6 14  1  0
  7  6  2  0
  8  9  1  0
  9 11  1  0
  9 10  2  0
 11 12  1  0
 13 12  1  6
 13 14  1  0
 15 13  1  0
 16 15  2  0
 17 15  1  0
 18 17  1  0
 18 26  1  0
 18 19  1  1
 20 25  2  0
 20 19  1  0
 21 20  1  0
 22 23  1  0
 22 21  2  0
 23 24  2  0
 24 25  1  0
 26 27  1  0
 28 26  2  0
M  END
$$$$
