KES.pdb
     RDKit          3D

 25 24  0  0  1  0  0  0  0  0999 V2000
    8.6780  -14.9082   17.2257 N   0  0  0  0  0  0  0  0  0  0  0  0
    9.6690  -14.0344   17.8027 C   0  0  1  0  0  0  0  0  0  0  0  0
    9.1043  -13.0369   18.7676 C   0  0  0  0  0  0  0  0  0  0  0  0
    8.3892  -13.6015   19.9357 C   0  0  0  0  0  0  0  0  0  0  0  0
    7.7194  -12.6665   20.8600 C   0  0  0  0  0  0  0  0  0  0  0  0
    6.9662  -13.2768   21.9909 C   0  0  0  0  0  0  0  0  0  0  0  0
    6.3233  -12.1671   22.7158 N   0  0  0  0  0  0  0  0  0  0  0  0
   10.7215  -14.8810   18.4448 C   0  0  0  0  0  0  0  0  0  0  0  0
   10.4559  -16.0307   18.8960 O   0  0  0  0  0  0  0  0  0  0  0  0
   12.0562  -14.4242   18.5688 N   0  0  0  0  0  0  0  0  0  0  0  0
   13.1313  -15.2147   19.1550 C   0  0  1  0  0  0  0  0  0  0  0  0
   14.4787  -14.6609   18.8302 C   0  0  0  0  0  0  0  0  0  0  0  0
   14.9664  -14.8891   17.4465 C   0  0  0  0  0  0  0  0  0  0  0  0
   16.2915  -14.3500   17.1321 C   0  0  0  0  0  0  0  0  0  0  0  0
   16.5233  -13.5794   16.1645 O   0  0  0  0  0  0  0  0  0  0  0  0
   12.9705  -15.1569   20.6612 C   0  0  0  0  0  0  0  0  0  0  0  0
   12.6164  -14.0716   21.1890 O   0  0  0  0  0  0  0  0  0  0  0  0
   17.4241  -14.6659   17.9112 O   0  0  0  0  0  0  0  0  0  0  0  0
   10.5652  -17.3104   22.2558 O   0  0  0  0  0  0  0  0  0  0  0  0
   11.2620  -16.3232   22.9871 C   0  0  0  0  0  0  0  0  0  0  0  0
   12.7231  -16.5119   22.7738 C   0  0  2  0  0  0  0  0  0  0  0  0
   13.2104  -16.2910   21.4604 N   0  0  0  0  0  0  0  0  0  0  0  0
   13.2445  -17.7814   23.4025 C   0  0  0  0  0  0  0  0  0  0  0  0
   13.0694  -17.9876   24.7315 O   0  0  0  0  0  0  0  0  0  0  0  0
   13.8332  -18.6473   22.7129 O   0  0  0  0  0  0  0  0  0  0  0  0
  2  8  1  0
  2  1  1  1
  3  2  1  0
  4  3  1  0
  5  4  1  0
  6  5  1  0
  6  7  1  0
  8  9  2  0
 10 11  1  0
 10  8  1  0
 12 13  1  0
 11 12  1  1
 13 14  1  0
 14 18  1  0
 14 15  2  0
 16 17  2  0
 16 11  1  0
 19 20  1  0
 21 20  1  6
 21 22  1  0
 21 23  1  0
 22 16  1  0
 23 24  1  0
 25 23  2  0
M  END
$$$$
