KES.pdb
     RDKit          3D

 25 24  0  0  1  0  0  0  0  0999 V2000
    7.9107  -17.8423   20.0136 N   0  0  0  0  0  0  0  0  0  0  0  0
    9.2013  -17.2042   19.9374 C   0  0  1  0  0  0  0  0  0  0  0  0
    9.1344  -15.7499   19.5826 C   0  0  0  0  0  0  0  0  0  0  0  0
    7.7855  -15.1385   19.6153 C   0  0  0  0  0  0  0  0  0  0  0  0
    7.6388  -13.7508   19.1359 C   0  0  0  0  0  0  0  0  0  0  0  0
    6.2803  -13.1503   19.2473 C   0  0  0  0  0  0  0  0  0  0  0  0
    6.3810  -11.7800   18.7162 N   0  0  0  0  0  0  0  0  0  0  0  0
    9.9057  -17.4175   21.2393 C   0  0  0  0  0  0  0  0  0  0  0  0
    9.3111  -17.9205   22.2340 O   0  0  0  0  0  0  0  0  0  0  0  0
   11.2672  -17.0643   21.4037 N   0  0  0  0  0  0  0  0  0  0  0  0
   12.0109  -17.2609   22.6416 C   0  0  1  0  0  0  0  0  0  0  0  0
   13.4157  -16.7676   22.5388 C   0  0  0  0  0  0  0  0  0  0  0  0
   14.2641  -16.9451   23.7444 C   0  0  0  0  0  0  0  0  0  0  0  0
   15.6615  -16.5250   23.6179 C   0  0  0  0  0  0  0  0  0  0  0  0
   16.4633  -17.0023   22.7735 O   0  0  0  0  0  0  0  0  0  0  0  0
   11.3242  -16.4465   23.7201 C   0  0  0  0  0  0  0  0  0  0  0  0
   11.0820  -15.2325   23.4972 O   0  0  0  0  0  0  0  0  0  0  0  0
   16.2160  -15.5336   24.4541 O   0  0  0  0  0  0  0  0  0  0  0  0
    8.0807  -16.9057   25.6641 O   0  0  0  0  0  0  0  0  0  0  0  0
    8.9790  -15.8264   25.8156 C   0  0  0  0  0  0  0  0  0  0  0  0
   10.3461  -16.3699   26.0434 C   0  0  2  0  0  0  0  0  0  0  0  0
   10.9612  -17.0298   24.9491 N   0  0  0  0  0  0  0  0  0  0  0  0
   10.4628  -17.1269   27.3442 C   0  0  0  0  0  0  0  0  0  0  0  0
    9.9829  -16.5707   28.4843 O   0  0  0  0  0  0  0  0  0  0  0  0
   10.9936  -18.2620   27.3836 O   0  0  0  0  0  0  0  0  0  0  0  0
  2  8  1  0
  2  1  1  1
  3  2  1  0
  4  3  1  0
  5  4  1  0
  6  5  1  0
  6  7  1  0
  8  9  2  0
 10 11  1  0
 10  8  1  0
 12 13  1  0
 11 12  1  6
 13 14  1  0
 14 18  1  0
 14 15  2  0
 16 17  2  0
 16 11  1  0
 19 20  1  0
 21 20  1  6
 21 22  1  0
 21 23  1  0
 22 16  1  0
 23 24  1  0
 25 23  2  0
M  END
$$$$
