KES.pdb
     RDKit          3D

 25 24  0  0  1  0  0  0  0  0999 V2000
   13.0068  -22.8682   17.2292 N   0  0  0  0  0  0  0  0  0  0  0  0
   13.2967  -21.5089   17.6124 C   0  0  1  0  0  0  0  0  0  0  0  0
   12.1407  -20.5726   17.4328 C   0  0  0  0  0  0  0  0  0  0  0  0
   10.7943  -21.1768   17.5610 C   0  0  0  0  0  0  0  0  0  0  0  0
    9.6194  -20.3015   17.3859 C   0  0  0  0  0  0  0  0  0  0  0  0
    8.2843  -20.9472   17.5242 C   0  0  0  0  0  0  0  0  0  0  0  0
    7.2815  -19.8839   17.3408 N   0  0  0  0  0  0  0  0  0  0  0  0
   13.7804  -21.5153   19.0276 C   0  0  0  0  0  0  0  0  0  0  0  0
   13.4631  -22.4408   19.8267 O   0  0  0  0  0  0  0  0  0  0  0  0
   14.6141  -20.4833   19.5230 N   0  0  0  0  0  0  0  0  0  0  0  0
   15.0783  -20.4096   20.9026 C   0  0  1  0  0  0  0  0  0  0  0  0
   16.1613  -19.3979   21.0788 C   0  0  0  0  0  0  0  0  0  0  0  0
   17.4549  -19.6981   20.4145 C   0  0  0  0  0  0  0  0  0  0  0  0
   18.5150  -18.7021   20.5860 C   0  0  0  0  0  0  0  0  0  0  0  0
   19.5453  -18.8881   21.2842 O   0  0  0  0  0  0  0  0  0  0  0  0
   13.9052  -19.9683   21.7552 C   0  0  0  0  0  0  0  0  0  0  0  0
   12.8346  -19.6375   21.1838 O   0  0  0  0  0  0  0  0  0  0  0  0
   18.4508  -17.4371   19.9654 O   0  0  0  0  0  0  0  0  0  0  0  0
   11.1252  -21.4348   24.8570 O   0  0  0  0  0  0  0  0  0  0  0  0
   12.0942  -21.3512   23.8329 C   0  0  0  0  0  0  0  0  0  0  0  0
   12.9531  -20.1613   24.0826 C   0  0  2  0  0  0  0  0  0  0  0  0
   14.0037  -19.9271   23.1591 N   0  0  0  0  0  0  0  0  0  0  0  0
   13.3841  -20.0461   25.5247 C   0  0  0  0  0  0  0  0  0  0  0  0
   12.6991  -19.2275   26.3616 O   0  0  0  0  0  0  0  0  0  0  0  0
   14.3628  -20.6983   25.9588 O   0  0  0  0  0  0  0  0  0  0  0  0
  2  8  1  0
  2  1  1  1
  3  2  1  0
  4  3  1  0
  5  4  1  0
  6  5  1  0
  6  7  1  0
  8  9  2  0
 10 11  1  0
 10  8  1  0
 12 13  1  0
 11 12  1  6
 13 14  1  0
 14 18  1  0
 14 15  2  0
 16 17  2  0
 16 11  1  0
 19 20  1  0
 21 20  1  1
 21 22  1  0
 21 23  1  0
 22 16  1  0
 23 24  1  0
 25 23  2  0
M  END
$$$$
