KES.pdb
     RDKit          3D

 25 24  0  0  1  0  0  0  0  0999 V2000
   10.6979  -15.5812   16.7954 N   0  0  0  0  0  0  0  0  0  0  0  0
   11.1103  -15.0240   18.0595 C   0  0  1  0  0  0  0  0  0  0  0  0
   10.1747  -13.9821   18.5927 C   0  0  0  0  0  0  0  0  0  0  0  0
    8.9183  -13.7919   17.8313 C   0  0  0  0  0  0  0  0  0  0  0  0
    7.9396  -12.8106   18.3377 C   0  0  0  0  0  0  0  0  0  0  0  0
    6.7502  -12.5553   17.4781 C   0  0  0  0  0  0  0  0  0  0  0  0
    5.9708  -11.4962   18.1420 N   0  0  0  0  0  0  0  0  0  0  0  0
   11.2874  -16.1479   19.0301 C   0  0  0  0  0  0  0  0  0  0  0  0
   10.4553  -17.0959   19.0975 O   0  0  0  0  0  0  0  0  0  0  0  0
   12.3972  -16.1907   19.9089 N   0  0  0  0  0  0  0  0  0  0  0  0
   12.6792  -17.3066   20.8031 C   0  0  1  0  0  0  0  0  0  0  0  0
   14.1392  -17.6047   20.8881 C   0  0  0  0  0  0  0  0  0  0  0  0
   14.7620  -18.1889   19.6734 C   0  0  0  0  0  0  0  0  0  0  0  0
   16.1864  -18.5154   19.7717 C   0  0  0  0  0  0  0  0  0  0  0  0
   17.1063  -17.7813   19.3261 O   0  0  0  0  0  0  0  0  0  0  0  0
   12.2186  -16.9064   22.1907 C   0  0  0  0  0  0  0  0  0  0  0  0
   12.6704  -15.8459   22.6940 O   0  0  0  0  0  0  0  0  0  0  0  0
   16.6337  -19.7031   20.3872 O   0  0  0  0  0  0  0  0  0  0  0  0
    8.6361  -17.2282   23.3411 O   0  0  0  0  0  0  0  0  0  0  0  0
    9.3683  -17.7020   24.4521 C   0  0  0  0  0  0  0  0  0  0  0  0
   10.8156  -17.4465   24.2156 C   0  0  2  0  0  0  0  0  0  0  0  0
   11.3035  -17.7001   22.9084 N   0  0  0  0  0  0  0  0  0  0  0  0
   11.6930  -18.0142   25.3050 C   0  0  0  0  0  0  0  0  0  0  0  0
   11.3787  -17.7803   26.6035 O   0  0  0  0  0  0  0  0  0  0  0  0
   12.7045  -18.7003   25.0256 O   0  0  0  0  0  0  0  0  0  0  0  0
  2  8  1  0
  2  1  1  6
  3  2  1  0
  4  3  1  0
  5  4  1  0
  6  5  1  0
  6  7  1  0
  8  9  2  0
 10 11  1  0
 10  8  1  0
 12 13  1  0
 11 12  1  1
 13 14  1  0
 14 18  1  0
 14 15  2  0
 16 17  2  0
 16 11  1  0
 19 20  1  0
 21 20  1  6
 21 22  1  0
 21 23  1  0
 22 16  1  0
 23 24  1  0
 25 23  2  0
M  END
$$$$
