KES.pdb
     RDKit          3D

 25 24  0  0  1  0  0  0  0  0999 V2000
    8.7012  -18.0131   19.2067 N   0  0  0  0  0  0  0  0  0  0  0  0
    9.4412  -16.9938   19.9081 C   0  0  1  0  0  0  0  0  0  0  0  0
    9.0500  -15.5976   19.5302 C   0  0  0  0  0  0  0  0  0  0  0  0
    8.7795  -15.3696   18.0917 C   0  0  0  0  0  0  0  0  0  0  0  0
    8.3961  -14.0108   17.6627 C   0  0  0  0  0  0  0  0  0  0  0  0
    8.1283  -13.8246   16.2094 C   0  0  0  0  0  0  0  0  0  0  0  0
    7.8802  -12.3866   16.0081 N   0  0  0  0  0  0  0  0  0  0  0  0
    9.2821  -17.2277   21.3766 C   0  0  0  0  0  0  0  0  0  0  0  0
    8.2108  -17.6955   21.8557 O   0  0  0  0  0  0  0  0  0  0  0  0
   10.3288  -16.9343   22.2843 N   0  0  0  0  0  0  0  0  0  0  0  0
   10.2608  -17.2079   23.7142 C   0  0  1  0  0  0  0  0  0  0  0  0
   11.5248  -17.8083   24.2332 C   0  0  0  0  0  0  0  0  0  0  0  0
   11.9235  -19.1113   23.6433 C   0  0  0  0  0  0  0  0  0  0  0  0
   13.1571  -19.7051   24.1637 C   0  0  0  0  0  0  0  0  0  0  0  0
   13.2417  -20.2806   25.2796 O   0  0  0  0  0  0  0  0  0  0  0  0
   10.0665  -15.8821   24.4231 C   0  0  0  0  0  0  0  0  0  0  0  0
   10.9910  -15.0307   24.3745 O   0  0  0  0  0  0  0  0  0  0  0  0
   14.3624  -19.6708   23.4317 O   0  0  0  0  0  0  0  0  0  0  0  0
    6.5956  -14.3820   24.5577 O   0  0  0  0  0  0  0  0  0  0  0  0
    7.1770  -13.9188   25.7586 C   0  0  0  0  0  0  0  0  0  0  0  0
    8.5808  -14.4086   25.8309 C   0  0  2  0  0  0  0  0  0  0  0  0
    8.8779  -15.6016   25.1239 N   0  0  0  0  0  0  0  0  0  0  0  0
    9.1330  -14.3894   27.2357 C   0  0  0  0  0  0  0  0  0  0  0  0
    9.8452  -15.4521   27.6863 O   0  0  0  0  0  0  0  0  0  0  0  0
    8.9449  -13.4047   27.9885 O   0  0  0  0  0  0  0  0  0  0  0  0
  2  8  1  0
  2  1  1  6
  3  2  1  0
  4  3  1  0
  5  4  1  0
  6  5  1  0
  6  7  1  0
  8  9  2  0
 10 11  1  0
 10  8  1  0
 12 13  1  0
 11 12  1  1
 13 14  1  0
 14 18  1  0
 14 15  2  0
 16 17  2  0
 16 11  1  0
 19 20  1  0
 21 20  1  1
 21 22  1  0
 21 23  1  0
 22 16  1  0
 23 24  1  0
 25 23  2  0
M  END
$$$$
