KES.pdb
     RDKit          3D

 25 24  0  0  1  0  0  0  0  0999 V2000
   11.0060  -17.4349   15.3298 N   0  0  0  0  0  0  0  0  0  0  0  0
   10.2667  -17.0951   16.5200 C   0  0  1  0  0  0  0  0  0  0  0  0
    9.0657  -17.9609   16.7510 C   0  0  0  0  0  0  0  0  0  0  0  0
    8.0183  -17.9048   15.7050 C   0  0  0  0  0  0  0  0  0  0  0  0
    6.7440  -18.6042   15.9583 C   0  0  0  0  0  0  0  0  0  0  0  0
    5.7151  -18.5184   14.8847 C   0  0  0  0  0  0  0  0  0  0  0  0
    4.5752  -19.3397   15.3276 N   0  0  0  0  0  0  0  0  0  0  0  0
   11.2060  -17.1414   17.6828 C   0  0  0  0  0  0  0  0  0  0  0  0
   11.6021  -18.2398   18.1649 O   0  0  0  0  0  0  0  0  0  0  0  0
   11.6872  -15.9535   18.2854 N   0  0  0  0  0  0  0  0  0  0  0  0
   12.5814  -15.9344   19.4361 C   0  0  1  0  0  0  0  0  0  0  0  0
   13.6830  -14.9400   19.2765 C   0  0  0  0  0  0  0  0  0  0  0  0
   14.6468  -15.1985   18.1770 C   0  0  0  0  0  0  0  0  0  0  0  0
   15.7164  -14.2118   18.0109 C   0  0  0  0  0  0  0  0  0  0  0  0
   15.8464  -13.1904   18.7344 O   0  0  0  0  0  0  0  0  0  0  0  0
   11.7642  -15.5132   20.6414 C   0  0  0  0  0  0  0  0  0  0  0  0
   11.1935  -14.3926   20.6217 O   0  0  0  0  0  0  0  0  0  0  0  0
   16.6962  -14.3431   17.0047 O   0  0  0  0  0  0  0  0  0  0  0  0
    9.4343  -17.5182   23.0528 O   0  0  0  0  0  0  0  0  0  0  0  0
    9.7756  -16.1880   23.3827 C   0  0  0  0  0  0  0  0  0  0  0  0
   11.2121  -15.9682   23.0597 C   0  0  2  0  0  0  0  0  0  0  0  0
   11.6414  -16.3538   21.7642 N   0  0  0  0  0  0  0  0  0  0  0  0
   12.1344  -16.4321   24.1611 C   0  0  0  0  0  0  0  0  0  0  0  0
   11.9645  -15.9529   25.4185 O   0  0  0  0  0  0  0  0  0  0  0  0
   13.0513  -17.2551   23.9297 O   0  0  0  0  0  0  0  0  0  0  0  0
  2  8  1  0
  2  1  1  6
  3  2  1  0
  4  3  1  0
  5  4  1  0
  6  5  1  0
  6  7  1  0
  8  9  2  0
 10 11  1  0
 10  8  1  0
 12 13  1  0
 11 12  1  6
 13 14  1  0
 14 18  1  0
 14 15  2  0
 16 17  2  0
 16 11  1  0
 19 20  1  0
 21 20  1  1
 21 22  1  0
 21 23  1  0
 22 16  1  0
 23 24  1  0
 25 23  2  0
M  END
$$$$
