KES.pdb
     RDKit          3D

 25 24  0  0  1  0  0  0  0  0999 V2000
    9.6770  -15.8479   16.3920 N   0  0  0  0  0  0  0  0  0  0  0  0
   10.3090  -14.7835   17.1311 C   0  0  1  0  0  0  0  0  0  0  0  0
    9.3420  -13.8015   17.7191 C   0  0  0  0  0  0  0  0  0  0  0  0
    8.0365  -13.6879   17.0282 C   0  0  0  0  0  0  0  0  0  0  0  0
    7.0717  -12.6876   17.5241 C   0  0  0  0  0  0  0  0  0  0  0  0
    5.7993  -12.5575   16.7606 C   0  0  0  0  0  0  0  0  0  0  0  0
    5.0535  -11.4441   17.3722 N   0  0  0  0  0  0  0  0  0  0  0  0
   11.1747  -15.3965   18.1853 C   0  0  0  0  0  0  0  0  0  0  0  0
   10.8892  -16.5126   18.7036 O   0  0  0  0  0  0  0  0  0  0  0  0
   12.3485  -14.7476   18.6399 N   0  0  0  0  0  0  0  0  0  0  0  0
   13.2413  -15.3030   19.6492 C   0  0  1  0  0  0  0  0  0  0  0  0
   14.6142  -14.7234   19.5664 C   0  0  0  0  0  0  0  0  0  0  0  0
   15.4047  -15.0770   18.3602 C   0  0  0  0  0  0  0  0  0  0  0  0
   16.7357  -14.4736   18.2610 C   0  0  0  0  0  0  0  0  0  0  0  0
   17.8052  -15.0919   18.5005 O   0  0  0  0  0  0  0  0  0  0  0  0
   12.6777  -14.9363   21.0078 C   0  0  0  0  0  0  0  0  0  0  0  0
   11.8971  -13.9536   21.0920 O   0  0  0  0  0  0  0  0  0  0  0  0
   16.9124  -13.1267   17.8814 O   0  0  0  0  0  0  0  0  0  0  0  0
    9.7796  -16.1762   22.7090 O   0  0  0  0  0  0  0  0  0  0  0  0
   10.9180  -16.9624   22.4249 C   0  0  0  0  0  0  0  0  0  0  0  0
   12.1105  -16.3178   23.0400 C   0  0  2  0  0  0  0  0  0  0  0  0
   13.0159  -15.6759   22.1571 N   0  0  0  0  0  0  0  0  0  0  0  0
   12.7892  -17.2005   24.0593 C   0  0  0  0  0  0  0  0  0  0  0  0
   12.2626  -17.3070   25.3047 O   0  0  0  0  0  0  0  0  0  0  0  0
   13.8292  -17.8377   23.7692 O   0  0  0  0  0  0  0  0  0  0  0  0
  2  8  1  0
  2  1  1  1
  3  2  1  0
  4  3  1  0
  5  4  1  0
  6  5  1  0
  6  7  1  0
  8  9  2  0
 10 11  1  0
 10  8  1  0
 12 13  1  0
 11 12  1  6
 13 14  1  0
 14 18  1  0
 14 15  2  0
 16 17  2  0
 16 11  1  0
 19 20  1  0
 21 20  1  6
 21 22  1  0
 21 23  1  0
 22 16  1  0
 23 24  1  0
 25 23  2  0
M  END
$$$$
