KES.pdb
     RDKit          3D

 25 24  0  0  1  0  0  0  0  0999 V2000
   10.5872  -16.7081   18.0726 N   0  0  0  0  0  0  0  0  0  0  0  0
   11.2031  -15.7514   18.9581 C   0  0  1  0  0  0  0  0  0  0  0  0
   10.2953  -14.6279   19.3567 C   0  0  0  0  0  0  0  0  0  0  0  0
    9.0793  -14.4553   18.5285 C   0  0  0  0  0  0  0  0  0  0  0  0
    8.1595  -13.3516   18.8648 C   0  0  0  0  0  0  0  0  0  0  0  0
    6.9923  -13.1613   17.9592 C   0  0  0  0  0  0  0  0  0  0  0  0
    6.2956  -11.9479   18.4200 N   0  0  0  0  0  0  0  0  0  0  0  0
   11.7206  -16.4866   20.1533 C   0  0  0  0  0  0  0  0  0  0  0  0
   10.9872  -17.2834   20.8036 O   0  0  0  0  0  0  0  0  0  0  0  0
   13.0542  -16.3167   20.5987 N   0  0  0  0  0  0  0  0  0  0  0  0
   13.6279  -17.0358   21.7292 C   0  0  1  0  0  0  0  0  0  0  0  0
   15.1099  -16.8758   21.8046 C   0  0  0  0  0  0  0  0  0  0  0  0
   15.7898  -17.5742   22.9247 C   0  0  0  0  0  0  0  0  0  0  0  0
   17.2370  -17.3734   23.0271 C   0  0  0  0  0  0  0  0  0  0  0  0
   17.7718  -16.4653   23.7148 O   0  0  0  0  0  0  0  0  0  0  0  0
   13.0442  -16.4373   22.9937 C   0  0  0  0  0  0  0  0  0  0  0  0
   13.1647  -15.2003   23.1871 O   0  0  0  0  0  0  0  0  0  0  0  0
   18.1506  -18.2043   22.3453 O   0  0  0  0  0  0  0  0  0  0  0  0
    9.4625  -17.2535   25.7257 O   0  0  0  0  0  0  0  0  0  0  0  0
   10.2556  -16.4191   24.9074 C   0  0  0  0  0  0  0  0  0  0  0  0
   11.6857  -16.7902   25.0890 C   0  0  2  0  0  0  0  0  0  0  0  0
   12.3790  -17.2429   23.9376 N   0  0  0  0  0  0  0  0  0  0  0  0
   11.9135  -17.6541   26.3058 C   0  0  0  0  0  0  0  0  0  0  0  0
   11.4023  -17.2690   27.5016 O   0  0  0  0  0  0  0  0  0  0  0  0
   12.5649  -18.7222   26.2248 O   0  0  0  0  0  0  0  0  0  0  0  0
  2  8  1  0
  2  1  1  6
  3  2  1  0
  4  3  1  0
  5  4  1  0
  6  5  1  0
  6  7  1  0
  8  9  2  0
 10 11  1  0
 10  8  1  0
 12 13  1  0
 11 12  1  1
 13 14  1  0
 14 18  1  0
 14 15  2  0
 16 17  2  0
 16 11  1  0
 19 20  1  0
 21 20  1  6
 21 22  1  0
 21 23  1  0
 22 16  1  0
 23 24  1  0
 25 23  2  0
M  END
$$$$
