KES.pdb
     RDKit          3D

 25 24  0  0  1  0  0  0  0  0999 V2000
    7.0113  -17.7576   19.7191 N   0  0  0  0  0  0  0  0  0  0  0  0
    8.3513  -17.2491   19.5622 C   0  0  1  0  0  0  0  0  0  0  0  0
    8.4066  -15.8552   19.0153 C   0  0  0  0  0  0  0  0  0  0  0  0
    8.0120  -14.7777   19.9523 C   0  0  0  0  0  0  0  0  0  0  0  0
    8.0821  -13.3825   19.4772 C   0  0  0  0  0  0  0  0  0  0  0  0
    7.6969  -12.3281   20.4562 C   0  0  0  0  0  0  0  0  0  0  0  0
    7.8821  -11.0345   19.7762 N   0  0  0  0  0  0  0  0  0  0  0  0
    9.0457  -17.3462   20.8831 C   0  0  0  0  0  0  0  0  0  0  0  0
    8.4629  -17.8191   21.8993 O   0  0  0  0  0  0  0  0  0  0  0  0
   10.3844  -16.9123   21.0422 N   0  0  0  0  0  0  0  0  0  0  0  0
   11.1922  -17.1948   22.2220 C   0  0  1  0  0  0  0  0  0  0  0  0
   12.5957  -16.7095   22.0726 C   0  0  0  0  0  0  0  0  0  0  0  0
   13.4939  -16.9297   23.2342 C   0  0  0  0  0  0  0  0  0  0  0  0
   14.8652  -16.4348   23.0928 C   0  0  0  0  0  0  0  0  0  0  0  0
   15.4043  -15.6258   23.8919 O   0  0  0  0  0  0  0  0  0  0  0  0
   10.5765  -16.4443   23.3863 C   0  0  0  0  0  0  0  0  0  0  0  0
   10.5538  -15.1872   23.3495 O   0  0  0  0  0  0  0  0  0  0  0  0
   15.6935  -16.8412   22.0259 O   0  0  0  0  0  0  0  0  0  0  0  0
    7.4479  -17.6993   25.7261 O   0  0  0  0  0  0  0  0  0  0  0  0
    8.0250  -16.4103   25.7359 C   0  0  0  0  0  0  0  0  0  0  0  0
    9.5056  -16.5482   25.6672 C   0  0  2  0  0  0  0  0  0  0  0  0
   10.0384  -17.1330   24.4902 N   0  0  0  0  0  0  0  0  0  0  0  0
   10.0981  -17.1083   26.9376 C   0  0  0  0  0  0  0  0  0  0  0  0
    9.7668  -16.5520   28.1293 O   0  0  0  0  0  0  0  0  0  0  0  0
   10.8883  -18.0812   26.9057 O   0  0  0  0  0  0  0  0  0  0  0  0
  2  8  1  0
  2  1  1  1
  3  2  1  0
  4  3  1  0
  5  4  1  0
  6  5  1  0
  6  7  1  0
  8  9  2  0
 10 11  1  0
 10  8  1  0
 12 13  1  0
 11 12  1  6
 13 14  1  0
 14 18  1  0
 14 15  2  0
 16 17  2  0
 16 11  1  0
 19 20  1  0
 21 20  1  1
 21 22  1  0
 21 23  1  0
 22 16  1  0
 23 24  1  0
 25 23  2  0
M  END
$$$$
