YDD.pdb
     RDKit          3D

 29 29  0  0  1  0  0  0  0  0999 V2000
   30.6565  -11.5938  -16.8979 O   0  0  0  0  0  0  0  0  0  0  0  0
   29.4097  -10.9542  -16.7586 C   0  0  0  0  0  0  0  0  0  0  0  0
   28.3856  -11.5428  -16.0423 C   0  0  0  0  0  0  0  0  0  0  0  0
   27.1814  -10.8757  -15.9344 C   0  0  0  0  0  0  0  0  0  0  0  0
   26.9567   -9.6483  -16.5103 C   0  0  0  0  0  0  0  0  0  0  0  0
   25.6475   -8.9753  -16.3594 C   0  0  0  0  0  0  0  0  0  0  0  0
   24.5439   -9.7115  -17.0752 C   0  0  2  0  0  0  0  0  0  0  0  0
   24.8621   -9.9333  -18.4683 N   0  0  0  0  0  0  0  0  0  0  0  0
   23.2240   -9.0063  -16.9324 C   0  0  0  0  0  0  0  0  0  0  0  0
   22.8417   -8.2368  -17.8473 O   0  0  0  0  0  0  0  0  0  0  0  0
   27.9819   -9.0712  -17.2209 C   0  0  0  0  0  0  0  0  0  0  0  0
   29.2090   -9.7177  -17.3487 C   0  0  0  0  0  0  0  0  0  0  0  0
   22.4032   -9.1893  -15.7928 N   0  0  0  0  0  0  0  0  0  0  0  0
   21.1135   -8.6076  -15.5546 C   0  0  1  0  0  0  0  0  0  0  0  0
   20.2286   -9.4049  -14.6011 C   0  0  0  0  0  0  0  0  0  0  0  0
   18.8599   -8.8563  -14.5259 C   0  0  0  0  0  0  0  0  0  0  0  0
   18.1898   -8.4914  -15.4968 O   0  0  0  0  0  0  0  0  0  0  0  0
   21.0873   -7.1713  -15.3541 C   0  0  0  0  0  0  0  0  0  0  0  0
   22.1443   -6.5616  -14.9620 O   0  0  0  0  0  0  0  0  0  0  0  0
   18.2262   -8.7185  -13.2699 O   0  0  0  0  0  0  0  0  0  0  0  0
   19.9662   -6.3325  -15.5545 N   0  0  0  0  0  0  0  0  0  0  0  0
   20.0908   -4.8473  -15.4908 C   0  0  1  0  0  0  0  0  0  0  0  0
   21.0030   -4.5224  -16.6465 C   0  0  0  0  0  0  0  0  0  0  0  0
   21.5784   -3.1888  -16.6552 C   0  0  0  0  0  0  0  0  0  0  0  0
   21.3386   -2.3496  -15.7590 O   0  0  0  0  0  0  0  0  0  0  0  0
   18.7562   -4.2641  -15.6861 C   0  0  0  0  0  0  0  0  0  0  0  0
   18.3877   -3.0524  -15.1177 O   0  0  0  0  0  0  0  0  0  0  0  0
   22.4446   -2.7498  -17.6720 O   0  0  0  0  0  0  0  0  0  0  0  0
   17.9073   -4.8510  -16.3777 O   0  0  0  0  0  0  0  0  0  0  0  0
  2  1  1  0
  3  2  2  0
  4  3  1  0
  5 11  1  0
  5  4  2  0
  6  5  1  0
  7  9  1  0
  7  6  1  0
  7  8  1  6
  9 10  2  0
 11 12  2  0
 12  2  1  0
 13 14  1  0
 13  9  1  0
 14 15  1  1
 16 15  1  0
 17 16  2  0
 18 19  2  0
 18 14  1  0
 20 16  1  0
 21 18  1  0
 22 21  1  0
 22 26  1  0
 22 23  1  6
 24 23  1  0
 24 28  1  0
 25 24  2  0
 26 27  1  0
 29 26  2  0
M  END
$$$$
