YDD.pdb
     RDKit          3D

 29 29  0  0  1  0  0  0  0  0999 V2000
   31.7513  -22.2524  -10.3446 O   0  0  0  0  0  0  0  0  0  0  0  0
   30.4910  -21.6965  -10.6375 C   0  0  0  0  0  0  0  0  0  0  0  0
   30.3446  -20.7576  -11.6402 C   0  0  0  0  0  0  0  0  0  0  0  0
   29.0881  -20.2421  -11.8894 C   0  0  0  0  0  0  0  0  0  0  0  0
   27.9738  -20.6233  -11.1812 C   0  0  0  0  0  0  0  0  0  0  0  0
   26.6493  -20.0415  -11.4929 C   0  0  0  0  0  0  0  0  0  0  0  0
   25.8241  -20.9456  -12.3727 C   0  0  2  0  0  0  0  0  0  0  0  0
   26.5607  -21.3776  -13.5397 N   0  0  0  0  0  0  0  0  0  0  0  0
   24.5252  -20.2999  -12.7671 C   0  0  0  0  0  0  0  0  0  0  0  0
   23.7619  -19.8674  -11.8694 O   0  0  0  0  0  0  0  0  0  0  0  0
   28.1300  -21.5579  -10.1856 C   0  0  0  0  0  0  0  0  0  0  0  0
   29.3839  -22.0977   -9.9091 C   0  0  0  0  0  0  0  0  0  0  0  0
   24.1429  -20.1676  -14.1244 N   0  0  0  0  0  0  0  0  0  0  0  0
   22.9017  -19.6519  -14.6261 C   0  0  1  0  0  0  0  0  0  0  0  0
   23.0307  -18.8345  -15.9079 C   0  0  0  0  0  0  0  0  0  0  0  0
   21.7709  -18.1481  -16.2566 C   0  0  0  0  0  0  0  0  0  0  0  0
   21.1358  -17.4076  -15.4994 O   0  0  0  0  0  0  0  0  0  0  0  0
   21.7720  -20.5610  -14.5934 C   0  0  0  0  0  0  0  0  0  0  0  0
   21.9652  -21.8136  -14.4029 O   0  0  0  0  0  0  0  0  0  0  0  0
   21.2093  -18.3206  -17.5422 O   0  0  0  0  0  0  0  0  0  0  0  0
   20.4157  -20.1948  -14.7575 N   0  0  0  0  0  0  0  0  0  0  0  0
   19.3132  -21.1420  -14.4219 C   0  0  1  0  0  0  0  0  0  0  0  0
   19.4777  -21.3599  -12.9391 C   0  0  0  0  0  0  0  0  0  0  0  0
   19.1403  -22.6827  -12.4430 C   0  0  0  0  0  0  0  0  0  0  0  0
   18.6277  -23.5610  -13.1716 O   0  0  0  0  0  0  0  0  0  0  0  0
   18.0337  -20.4857  -14.7245 C   0  0  0  0  0  0  0  0  0  0  0  0
   17.8432  -19.1213  -14.5535 O   0  0  0  0  0  0  0  0  0  0  0  0
   19.3670  -23.0665  -11.1095 O   0  0  0  0  0  0  0  0  0  0  0  0
   17.0714  -21.1469  -15.1489 O   0  0  0  0  0  0  0  0  0  0  0  0
  2  1  1  0
  3  2  2  0
  4  3  1  0
  5 11  1  0
  5  4  2  0
  6  5  1  0
  7  9  1  0
  7  6  1  0
  7  8  1  6
  9 10  2  0
 11 12  2  0
 12  2  1  0
 13 14  1  0
 13  9  1  0
 14 15  1  6
 16 15  1  0
 17 16  2  0
 18 19  2  0
 18 14  1  0
 20 16  1  0
 21 18  1  0
 22 21  1  0
 22 26  1  0
 22 23  1  1
 24 23  1  0
 24 28  1  0
 25 24  2  0
 26 27  1  0
 29 26  2  0
M  END
$$$$
