YDD.pdb
     RDKit          3D

 29 29  0  0  1  0  0  0  0  0999 V2000
   27.2645  -26.5606  -17.2738 O   0  0  0  0  0  0  0  0  0  0  0  0
   25.9727  -26.2239  -16.8255 C   0  0  0  0  0  0  0  0  0  0  0  0
   24.8725  -26.3827  -17.6457 C   0  0  0  0  0  0  0  0  0  0  0  0
   23.6266  -26.0383  -17.1602 C   0  0  0  0  0  0  0  0  0  0  0  0
   23.4329  -25.5429  -15.8931 C   0  0  0  0  0  0  0  0  0  0  0  0
   22.0743  -25.1936  -15.4219 C   0  0  0  0  0  0  0  0  0  0  0  0
   21.4496  -26.3032  -14.6151 C   0  0  2  0  0  0  0  0  0  0  0  0
   21.2812  -27.5071  -15.3982 N   0  0  0  0  0  0  0  0  0  0  0  0
   20.1455  -25.8756  -14.0018 C   0  0  0  0  0  0  0  0  0  0  0  0
   19.1089  -25.8781  -14.7096 O   0  0  0  0  0  0  0  0  0  0  0  0
   24.5339  -25.3885  -15.0849 C   0  0  0  0  0  0  0  0  0  0  0  0
   25.8046  -25.7267  -15.5442 C   0  0  0  0  0  0  0  0  0  0  0  0
   20.0584  -25.4714  -12.6472 N   0  0  0  0  0  0  0  0  0  0  0  0
   18.9168  -24.9085  -11.9852 C   0  0  1  0  0  0  0  0  0  0  0  0
   18.9318  -25.0569  -10.4667 C   0  0  0  0  0  0  0  0  0  0  0  0
   18.8441  -26.4697  -10.0472 C   0  0  0  0  0  0  0  0  0  0  0  0
   19.2414  -26.9122   -8.9650 O   0  0  0  0  0  0  0  0  0  0  0  0
   18.4719  -23.6149  -12.4674 C   0  0  0  0  0  0  0  0  0  0  0  0
   19.2950  -22.8410  -13.0725 O   0  0  0  0  0  0  0  0  0  0  0  0
   18.2704  -27.4262  -10.9156 O   0  0  0  0  0  0  0  0  0  0  0  0
   17.1644  -23.0920  -12.3341 N   0  0  0  0  0  0  0  0  0  0  0  0
   16.8012  -21.7633  -12.9067 C   0  0  1  0  0  0  0  0  0  0  0  0
   17.0949  -21.9233  -14.3769 C   0  0  0  0  0  0  0  0  0  0  0  0
   16.6450  -20.8471  -15.2425 C   0  0  0  0  0  0  0  0  0  0  0  0
   16.7798  -19.6413  -14.9379 O   0  0  0  0  0  0  0  0  0  0  0  0
   15.3685  -21.5364  -12.6720 C   0  0  0  0  0  0  0  0  0  0  0  0
   14.8188  -20.2624  -12.6258 O   0  0  0  0  0  0  0  0  0  0  0  0
   16.0270  -21.0873  -16.4824 O   0  0  0  0  0  0  0  0  0  0  0  0
   14.5975  -22.4962  -12.5057 O   0  0  0  0  0  0  0  0  0  0  0  0
  2  1  1  0
  3  2  2  0
  4  3  1  0
  5 11  1  0
  5  4  2  0
  6  5  1  0
  7  9  1  0
  7  6  1  0
  7  8  1  6
  9 10  2  0
 11 12  2  0
 12  2  1  0
 13 14  1  0
 13  9  1  0
 14 15  1  1
 16 15  1  0
 17 16  2  0
 18 19  2  0
 18 14  1  0
 20 16  1  0
 21 18  1  0
 22 21  1  0
 22 26  1  0
 22 23  1  6
 24 23  1  0
 24 28  1  0
 25 24  2  0
 26 27  1  0
 29 26  2  0
M  END
$$$$
