YDD.pdb
     RDKit          3D

 29 29  0  0  1  0  0  0  0  0999 V2000
   15.1316  -15.7937  -15.7033 O   0  0  0  0  0  0  0  0  0  0  0  0
   16.0343  -14.7256  -15.5376 C   0  0  0  0  0  0  0  0  0  0  0  0
   17.2867  -14.9322  -14.9924 C   0  0  0  0  0  0  0  0  0  0  0  0
   18.1359  -13.8527  -14.8505 C   0  0  0  0  0  0  0  0  0  0  0  0
   17.7884  -12.5781  -15.2290 C   0  0  0  0  0  0  0  0  0  0  0  0
   18.7396  -11.4574  -15.0584 C   0  0  0  0  0  0  0  0  0  0  0  0
   19.7786  -11.4224  -16.1500 C   0  0  2  0  0  0  0  0  0  0  0  0
   20.6308  -12.5902  -16.1178 N   0  0  0  0  0  0  0  0  0  0  0  0
   20.5949  -10.1612  -16.0976 C   0  0  0  0  0  0  0  0  0  0  0  0
   21.7759  -10.2164  -15.6761 O   0  0  0  0  0  0  0  0  0  0  0  0
   16.5402  -12.3830  -15.7703 C   0  0  0  0  0  0  0  0  0  0  0  0
   15.6597  -13.4508  -15.9271 C   0  0  0  0  0  0  0  0  0  0  0  0
   20.0648   -8.9150  -16.5120 N   0  0  0  0  0  0  0  0  0  0  0  0
   20.7727   -7.6733  -16.6363 C   0  0  1  0  0  0  0  0  0  0  0  0
   22.1226   -7.7848  -17.3388 C   0  0  0  0  0  0  0  0  0  0  0  0
   22.8468   -6.4982  -17.3548 C   0  0  0  0  0  0  0  0  0  0  0  0
   23.4596   -6.0196  -16.3956 O   0  0  0  0  0  0  0  0  0  0  0  0
   19.9794   -6.5208  -17.0186 C   0  0  0  0  0  0  0  0  0  0  0  0
   19.4179   -6.4853  -18.1702 O   0  0  0  0  0  0  0  0  0  0  0  0
   22.8687   -5.7190  -18.5340 O   0  0  0  0  0  0  0  0  0  0  0  0
   19.7491   -5.3778  -16.2179 N   0  0  0  0  0  0  0  0  0  0  0  0
   18.3893   -4.7749  -16.1043 C   0  0  1  0  0  0  0  0  0  0  0  0
   17.5783   -5.8614  -15.4449 C   0  0  0  0  0  0  0  0  0  0  0  0
   16.2267   -5.5043  -15.0503 C   0  0  0  0  0  0  0  0  0  0  0  0
   15.4315   -4.9304  -15.8270 O   0  0  0  0  0  0  0  0  0  0  0  0
   18.4828   -3.5856  -15.2462 C   0  0  0  0  0  0  0  0  0  0  0  0
   17.4360   -2.6831  -15.1157 O   0  0  0  0  0  0  0  0  0  0  0  0
   15.7199   -5.7793  -13.7680 O   0  0  0  0  0  0  0  0  0  0  0  0
   19.5199   -3.3526  -14.6033 O   0  0  0  0  0  0  0  0  0  0  0  0
  2  1  1  0
  3  2  2  0
  4  3  1  0
  5 11  1  0
  5  4  2  0
  6  5  1  0
  7  9  1  0
  7  6  1  0
  7  8  1  1
  9 10  2  0
 11 12  2  0
 12  2  1  0
 13 14  1  0
 13  9  1  0
 14 15  1  6
 16 15  1  0
 17 16  2  0
 18 19  2  0
 18 14  1  0
 20 16  1  0
 21 18  1  0
 22 21  1  0
 22 26  1  0
 22 23  1  1
 24 23  1  0
 24 28  1  0
 25 24  2  0
 26 27  1  0
 29 26  2  0
M  END
$$$$
