YDD.pdb
     RDKit          3D

 29 29  0  0  1  0  0  0  0  0999 V2000
   18.1812  -20.8908  -13.3580 O   0  0  0  0  0  0  0  0  0  0  0  0
   18.9164  -19.8560  -13.9677 C   0  0  0  0  0  0  0  0  0  0  0  0
   20.0866  -19.3878  -13.4023 C   0  0  0  0  0  0  0  0  0  0  0  0
   20.7717  -18.3715  -14.0384 C   0  0  0  0  0  0  0  0  0  0  0  0
   20.3387  -17.8040  -15.2128 C   0  0  0  0  0  0  0  0  0  0  0  0
   21.1146  -16.7197  -15.8548 C   0  0  0  0  0  0  0  0  0  0  0  0
   21.8544  -17.1976  -17.0781 C   0  0  2  0  0  0  0  0  0  0  0  0
   22.8431  -18.2005  -16.7500 N   0  0  0  0  0  0  0  0  0  0  0  0
   22.4786  -16.0550  -17.8296 C   0  0  0  0  0  0  0  0  0  0  0  0
   23.6334  -15.6768  -17.5151 O   0  0  0  0  0  0  0  0  0  0  0  0
   19.1733  -18.2769  -15.7672 C   0  0  0  0  0  0  0  0  0  0  0  0
   18.4584  -19.3011  -15.1508 C   0  0  0  0  0  0  0  0  0  0  0  0
   21.7966  -15.3966  -18.8818 N   0  0  0  0  0  0  0  0  0  0  0  0
   22.2528  -14.2603  -19.6295 C   0  0  1  0  0  0  0  0  0  0  0  0
   22.2254  -14.4493  -21.1433 C   0  0  0  0  0  0  0  0  0  0  0  0
   22.6095  -15.8192  -21.5377 C   0  0  0  0  0  0  0  0  0  0  0  0
   21.8800  -16.6125  -22.1405 O   0  0  0  0  0  0  0  0  0  0  0  0
   21.7922  -12.9647  -19.1680 C   0  0  0  0  0  0  0  0  0  0  0  0
   22.1587  -11.9008  -19.7815 O   0  0  0  0  0  0  0  0  0  0  0  0
   23.8992  -16.3053  -21.2236 O   0  0  0  0  0  0  0  0  0  0  0  0
   20.9417  -12.7401  -18.0604 N   0  0  0  0  0  0  0  0  0  0  0  0
   20.6462  -11.3590  -17.5803 C   0  0  1  0  0  0  0  0  0  0  0  0
   19.9100  -10.7353  -18.7390 C   0  0  0  0  0  0  0  0  0  0  0  0
   19.3220   -9.4292  -18.4981 C   0  0  0  0  0  0  0  0  0  0  0  0
   20.0165   -8.4035  -18.3235 O   0  0  0  0  0  0  0  0  0  0  0  0
   19.7847  -11.4580  -16.3940 C   0  0  0  0  0  0  0  0  0  0  0  0
   19.7315  -10.4579  -15.4325 O   0  0  0  0  0  0  0  0  0  0  0  0
   17.9314   -9.2285  -18.4447 O   0  0  0  0  0  0  0  0  0  0  0  0
   19.0683  -12.4574  -16.2172 O   0  0  0  0  0  0  0  0  0  0  0  0
  2  1  1  0
  3  2  2  0
  4  3  1  0
  5 11  1  0
  5  4  2  0
  6  5  1  0
  7  9  1  0
  7  6  1  0
  7  8  1  1
  9 10  2  0
 11 12  2  0
 12  2  1  0
 13 14  1  0
 13  9  1  0
 14 15  1  6
 16 15  1  0
 17 16  2  0
 18 19  2  0
 18 14  1  0
 20 16  1  0
 21 18  1  0
 22 21  1  0
 22 26  1  0
 22 23  1  6
 24 23  1  0
 24 28  1  0
 25 24  2  0
 26 27  1  0
 29 26  2  0
M  END
$$$$
