YDD.pdb
     RDKit          3D

 29 29  0  0  1  0  0  0  0  0999 V2000
   30.2237  -12.7201  -16.3405 O   0  0  0  0  0  0  0  0  0  0  0  0
   29.0623  -11.9237  -16.3505 C   0  0  0  0  0  0  0  0  0  0  0  0
   28.9955  -10.7749  -17.1149 C   0  0  0  0  0  0  0  0  0  0  0  0
   27.8346  -10.0277  -17.0912 C   0  0  0  0  0  0  0  0  0  0  0  0
   26.7397  -10.3780  -16.3381 C   0  0  0  0  0  0  0  0  0  0  0  0
   25.5184   -9.5425  -16.3530 C   0  0  0  0  0  0  0  0  0  0  0  0
   24.3885  -10.2007  -17.1032 C   0  0  2  0  0  0  0  0  0  0  0  0
   24.8073  -10.6620  -18.4081 N   0  0  0  0  0  0  0  0  0  0  0  0
   23.1941   -9.2945  -17.2125 C   0  0  0  0  0  0  0  0  0  0  0  0
   23.1497   -8.4540  -18.1437 O   0  0  0  0  0  0  0  0  0  0  0  0
   26.8162  -11.5226  -15.5811 C   0  0  0  0  0  0  0  0  0  0  0  0
   27.9727  -12.2988  -15.5828 C   0  0  0  0  0  0  0  0  0  0  0  0
   22.1199   -9.3664  -16.2924 N   0  0  0  0  0  0  0  0  0  0  0  0
   20.9079   -8.5990  -16.3175 C   0  0  1  0  0  0  0  0  0  0  0  0
   19.6326   -9.4314  -16.2235 C   0  0  0  0  0  0  0  0  0  0  0  0
   19.6224  -10.2965  -15.0272 C   0  0  0  0  0  0  0  0  0  0  0  0
   20.5781  -10.9735  -14.6357 O   0  0  0  0  0  0  0  0  0  0  0  0
   20.9037   -7.3847  -15.5243 C   0  0  0  0  0  0  0  0  0  0  0  0
   21.7526   -7.2386  -14.5753 O   0  0  0  0  0  0  0  0  0  0  0  0
   18.4535  -10.3903  -14.2379 O   0  0  0  0  0  0  0  0  0  0  0  0
   20.0203   -6.2933  -15.6947 N   0  0  0  0  0  0  0  0  0  0  0  0
   20.1367   -5.0662  -14.8545 C   0  0  1  0  0  0  0  0  0  0  0  0
   21.4245   -4.4396  -15.3261 C   0  0  0  0  0  0  0  0  0  0  0  0
   21.7735   -3.1622  -14.7291 C   0  0  0  0  0  0  0  0  0  0  0  0
   21.1717   -2.1029  -15.0134 O   0  0  0  0  0  0  0  0  0  0  0  0
   18.9861   -4.1990  -15.1434 C   0  0  0  0  0  0  0  0  0  0  0  0
   18.5221   -3.9910  -16.4352 O   0  0  0  0  0  0  0  0  0  0  0  0
   22.8118   -3.0291  -13.7906 O   0  0  0  0  0  0  0  0  0  0  0  0
   18.3876   -3.6187  -14.2224 O   0  0  0  0  0  0  0  0  0  0  0  0
  2  1  1  0
  3  2  2  0
  4  3  1  0
  5 11  1  0
  5  4  2  0
  6  5  1  0
  7  9  1  0
  7  6  1  0
  7  8  1  6
  9 10  2  0
 11 12  2  0
 12  2  1  0
 13 14  1  0
 13  9  1  0
 14 15  1  1
 16 15  1  0
 17 16  2  0
 18 19  2  0
 18 14  1  0
 20 16  1  0
 21 18  1  0
 22 21  1  0
 22 26  1  0
 22 23  1  6
 24 23  1  0
 24 28  1  0
 25 24  2  0
 26 27  1  0
 29 26  2  0
M  END
$$$$
