RIV.pdb
     RDKit          3D

 27 26  0  0  1  0  0  0  0  0999 V2000
   19.1724  -28.3680   -4.9392 N   0  0  0  0  0  0  0  0  0  0  0  0
   18.7967  -29.3393   -5.9072 C   0  0  0  0  0  0  0  0  0  0  0  0
   18.6698  -30.5701   -5.5012 N   0  0  0  0  0  0  0  0  0  0  0  0
   18.5737  -28.9653   -7.2527 N   0  0  0  0  0  0  0  0  0  0  0  0
   18.8300  -27.6403   -7.7114 C   0  0  0  0  0  0  0  0  0  0  0  0
   17.5694  -26.8204   -7.8734 C   0  0  0  0  0  0  0  0  0  0  0  0
   17.8426  -25.4675   -8.4713 C   0  0  0  0  0  0  0  0  0  0  0  0
   18.6542  -24.5824   -7.5601 C   0  0  2  0  0  0  0  0  0  0  0  0
   17.9799  -24.2875   -6.3145 N   0  0  0  0  0  0  0  0  0  0  0  0
   18.9581  -23.3186   -8.2459 C   0  0  0  0  0  0  0  0  0  0  0  0
   18.0685  -22.4392   -8.3636 O   0  0  0  0  0  0  0  0  0  0  0  0
   18.4448  -31.3475   -6.1322 C   0  0  0  0  0  0  0  0  0  0  0  0
   23.6767  -20.7526   -7.9389 C   0  0  0  0  0  0  0  0  0  0  0  0
   22.2428  -21.1158   -8.1057 C   0  0  2  0  0  0  0  0  0  0  0  0
   21.8353  -21.3475   -9.5347 C   0  0  0  0  0  0  0  0  0  0  0  0
   22.1172  -20.1833  -10.4265 C   0  0  2  0  0  0  0  0  0  0  0  0
   20.4164  -21.8241   -9.6014 N   0  0  0  0  0  0  0  0  0  0  0  0
   20.2271  -23.0055   -8.8054 C   0  0  0  0  0  0  0  0  0  0  0  0
   19.9567  -22.0046  -10.9997 O   0  0  0  0  0  0  0  0  0  0  0  0
   20.4024  -22.9954  -11.6297 C   0  0  0  0  0  0  0  0  0  0  0  0
   17.0337  -21.9503  -14.7309 C   0  0  1  0  0  0  0  0  0  0  0  0
   17.3075  -21.8589  -13.2470 C   0  0  0  0  0  0  0  0  0  0  0  0
   16.2592  -21.0240  -12.5765 C   0  0  2  0  0  0  0  0  0  0  0  0
   18.6998  -21.2975  -13.0740 N   0  0  0  0  0  0  0  0  0  0  0  0
   19.0580  -21.1498  -11.6761 C   0  0  0  0  0  0  0  0  0  0  0  0
   18.8729  -19.9892  -13.7363 O   0  0  0  0  0  0  0  0  0  0  0  0
   19.0394  -19.8765  -15.1083 O   0  0  0  0  0  0  0  0  0  0  0  0
  2  1  1  0
  3  2  2  0
  4  2  1  0
  5  4  1  0
  5  6  1  0
  7  6  1  0
  7  8  1  0
  8 10  1  0
  8  9  1  1
 10 11  2  0
 12 13  1  0
 14 15  1  6
 14 16  1  0
 14 13  1  0
 16 17  1  1
 17 10  1  0
 18 24  1  0
 18 16  1  0
 19 18  2  0
 21 22  1  6
 21 20  1  0
 23 21  1  0
 23 24  1  6
 25 26  1  0
 25 23  1  0
 27 25  2  0
M  END
$$$$
