RIV.pdb
     RDKit          3D

 27 26  0  0  1  0  0  0  0  0999 V2000
   21.5906  -20.9953  -15.3620 N   0  0  0  0  0  0  0  0  0  0  0  0
   22.0629  -19.8056  -15.9810 C   0  0  0  0  0  0  0  0  0  0  0  0
   21.2405  -19.1747  -16.7693 N   0  0  0  0  0  0  0  0  0  0  0  0
   23.3764  -19.3410  -15.7383 N   0  0  0  0  0  0  0  0  0  0  0  0
   24.0708  -19.6604  -14.5351 C   0  0  0  0  0  0  0  0  0  0  0  0
   23.2381  -19.4218  -13.2952 C   0  0  0  0  0  0  0  0  0  0  0  0
   23.6121  -20.3484  -12.1709 C   0  0  0  0  0  0  0  0  0  0  0  0
   25.0875  -20.3223  -11.8624 C   0  0  2  0  0  0  0  0  0  0  0  0
   25.8745  -21.0800  -12.8109 N   0  0  0  0  0  0  0  0  0  0  0  0
   25.3173  -20.8636  -10.5155 C   0  0  0  0  0  0  0  0  0  0  0  0
   25.3535  -22.1067  -10.3370 O   0  0  0  0  0  0  0  0  0  0  0  0
   21.5063  -18.3395  -17.3031 C   0  0  0  0  0  0  0  0  0  0  0  0
   28.5578  -19.0294   -6.8065 C   0  0  0  0  0  0  0  0  0  0  0  0
   27.6325  -19.8761   -7.6083 C   0  0  2  0  0  0  0  0  0  0  0  0
   26.2372  -19.9489   -7.0521 C   0  0  0  0  0  0  0  0  0  0  0  0
   26.1744  -20.5573   -5.6897 C   0  0  2  0  0  0  0  0  0  0  0  0
   25.3152  -20.5953   -8.0405 N   0  0  0  0  0  0  0  0  0  0  0  0
   25.5082  -20.0583   -9.3595 C   0  0  0  0  0  0  0  0  0  0  0  0
   23.8994  -20.5289   -7.6045 O   0  0  0  0  0  0  0  0  0  0  0  0
   23.2825  -19.4546   -7.8103 C   0  0  0  0  0  0  0  0  0  0  0  0
   21.4572  -23.8763   -6.7844 C   0  0  1  0  0  0  0  0  0  0  0  0
   20.9327  -22.5179   -7.1904 C   0  0  0  0  0  0  0  0  0  0  0  0
   20.9014  -22.3990   -8.6838 C   0  0  1  0  0  0  0  0  0  0  0  0
   21.8132  -21.4762   -6.5400 N   0  0  0  0  0  0  0  0  0  0  0  0
   23.1927  -21.5789   -6.9768 C   0  0  0  0  0  0  0  0  0  0  0  0
   21.7886  -21.5496   -5.0654 O   0  0  0  0  0  0  0  0  0  0  0  0
   20.6946  -21.1249   -4.3267 O   0  0  0  0  0  0  0  0  0  0  0  0
  2  1  1  0
  3  2  2  0
  4  2  1  0
  5  4  1  0
  5  6  1  0
  7  6  1  0
  7  8  1  0
  8 10  1  0
  8  9  1  6
 10 11  2  0
 12 13  1  0
 14 15  1  6
 14 16  1  0
 14 13  1  0
 16 17  1  6
 17 10  1  0
 18 24  1  0
 18 16  1  0
 19 18  2  0
 21 22  1  6
 21 20  1  0
 23 21  1  0
 23 24  1  6
 25 26  1  0
 25 23  1  0
 27 25  2  0
M  END
$$$$
