RIV.pdb
     RDKit          3D

 27 26  0  0  1  0  0  0  0  0999 V2000
   18.3576  -28.6320   -5.9318 N   0  0  0  0  0  0  0  0  0  0  0  0
   18.6526  -29.4661   -7.0448 C   0  0  0  0  0  0  0  0  0  0  0  0
   18.4340  -30.7427   -6.9099 N   0  0  0  0  0  0  0  0  0  0  0  0
   19.1625  -28.9137   -8.2427 N   0  0  0  0  0  0  0  0  0  0  0  0
   19.3468  -27.5087   -8.3977 C   0  0  0  0  0  0  0  0  0  0  0  0
   18.0423  -26.7434   -8.4144 C   0  0  0  0  0  0  0  0  0  0  0  0
   18.2134  -25.3369   -8.9192 C   0  0  0  0  0  0  0  0  0  0  0  0
   18.8572  -24.4287   -7.9027 C   0  0  2  0  0  0  0  0  0  0  0  0
   18.0136  -24.1827   -6.7533 N   0  0  0  0  0  0  0  0  0  0  0  0
   19.1877  -23.1427   -8.5326 C   0  0  0  0  0  0  0  0  0  0  0  0
   18.2965  -22.2697   -8.6812 O   0  0  0  0  0  0  0  0  0  0  0  0
   18.6084  -31.4229   -7.6583 C   0  0  0  0  0  0  0  0  0  0  0  0
   24.0334  -20.7794   -8.1086 C   0  0  0  0  0  0  0  0  0  0  0  0
   22.5863  -21.0894   -8.2691 C   0  0  2  0  0  0  0  0  0  0  0  0
   22.1362  -21.1718   -9.7016 C   0  0  0  0  0  0  0  0  0  0  0  0
   22.4238  -19.9330  -10.4844 C   0  0  2  0  0  0  0  0  0  0  0  0
   20.7046  -21.6079   -9.7740 N   0  0  0  0  0  0  0  0  0  0  0  0
   20.4851  -22.8005   -9.0026 C   0  0  0  0  0  0  0  0  0  0  0  0
   20.2365  -21.7459  -11.1743 O   0  0  0  0  0  0  0  0  0  0  0  0
   20.6329  -22.7484  -11.8185 C   0  0  0  0  0  0  0  0  0  0  0  0
   17.0979  -20.7263  -14.8121 C   0  0  1  0  0  0  0  0  0  0  0  0
   17.5074  -20.4606  -13.3814 C   0  0  0  0  0  0  0  0  0  0  0  0
   17.4374  -18.9933  -13.0856 C   0  0  2  0  0  0  0  0  0  0  0  0
   18.8947  -21.0290  -13.1912 N   0  0  0  0  0  0  0  0  0  0  0  0
   19.3809  -20.8385  -11.8379 C   0  0  0  0  0  0  0  0  0  0  0  0
   19.8814  -20.4473  -14.1232 O   0  0  0  0  0  0  0  0  0  0  0  0
   20.1504  -21.0171  -15.3583 O   0  0  0  0  0  0  0  0  0  0  0  0
  2  1  1  0
  3  2  2  0
  4  2  1  0
  5  4  1  0
  5  6  1  0
  7  6  1  0
  7  8  1  0
  8 10  1  0
  8  9  1  1
 10 11  2  0
 12 13  1  0
 14 15  1  6
 14 16  1  0
 14 13  1  0
 16 17  1  1
 17 10  1  0
 18 24  1  0
 18 16  1  0
 19 18  2  0
 21 22  1  6
 21 20  1  0
 23 21  1  0
 23 24  1  6
 25 26  1  0
 25 23  1  0
 27 25  2  0
M  END
$$$$
