RIV.pdb
     RDKit          3D

 27 26  0  0  1  0  0  0  0  0999 V2000
   30.6258  -18.7853  -18.9160 N   0  0  0  0  0  0  0  0  0  0  0  0
   29.9919  -17.6551  -18.3311 C   0  0  0  0  0  0  0  0  0  0  0  0
   30.0513  -16.5309  -18.9856 N   0  0  0  0  0  0  0  0  0  0  0  0
   29.3277  -17.7662  -17.0875 N   0  0  0  0  0  0  0  0  0  0  0  0
   28.7674  -19.0012  -16.6482 C   0  0  0  0  0  0  0  0  0  0  0  0
   27.4363  -19.3066  -17.2980 C   0  0  0  0  0  0  0  0  0  0  0  0
   26.4998  -20.0270  -16.3670 C   0  0  0  0  0  0  0  0  0  0  0  0
   27.2218  -20.7320  -15.2470 C   0  0  2  0  0  0  0  0  0  0  0  0
   28.0081  -21.8571  -15.7043 N   0  0  0  0  0  0  0  0  0  0  0  0
   26.2462  -21.2065  -14.2557 C   0  0  0  0  0  0  0  0  0  0  0  0
   25.5124  -22.1915  -14.5197 O   0  0  0  0  0  0  0  0  0  0  0  0
   29.6656  -15.6513  -18.6238 C   0  0  0  0  0  0  0  0  0  0  0  0
   27.0109  -20.5199   -8.9474 C   0  0  0  0  0  0  0  0  0  0  0  0
   26.5555  -21.1112  -10.2353 C   0  0  2  0  0  0  0  0  0  0  0  0
   25.2230  -20.5960  -10.7048 C   0  0  0  0  0  0  0  0  0  0  0  0
   24.0993  -20.9329   -9.7805 C   0  0  2  0  0  0  0  0  0  0  0  0
   24.9756  -21.0072  -12.1242 N   0  0  0  0  0  0  0  0  0  0  0  0
   26.0641  -20.6140  -12.9762 C   0  0  0  0  0  0  0  0  0  0  0  0
   23.6649  -20.5240  -12.6217 O   0  0  0  0  0  0  0  0  0  0  0  0
   23.5660  -19.3017  -12.8924 C   0  0  0  0  0  0  0  0  0  0  0  0
   22.0094  -21.5330  -15.6243 C   0  0  1  0  0  0  0  0  0  0  0  0
   20.8859  -21.6479  -14.6195 C   0  0  0  0  0  0  0  0  0  0  0  0
   19.5986  -21.1765  -15.2244 C   0  0  2  0  0  0  0  0  0  0  0  0
   21.2833  -20.8516  -13.3982 N   0  0  0  0  0  0  0  0  0  0  0  0
   22.5215  -21.3311  -12.8141 C   0  0  0  0  0  0  0  0  0  0  0  0
   20.2437  -20.8599  -12.3495 O   0  0  0  0  0  0  0  0  0  0  0  0
   19.3317  -19.8247  -12.2107 O   0  0  0  0  0  0  0  0  0  0  0  0
  2  1  1  0
  3  2  2  0
  4  2  1  0
  5  4  1  0
  5  6  1  0
  7  6  1  0
  7  8  1  0
  8 10  1  0
  8  9  1  6
 10 11  2  0
 12 13  1  0
 14 15  1  6
 14 16  1  0
 14 13  1  0
 16 17  1  6
 17 10  1  0
 18 24  1  0
 18 16  1  0
 19 18  2  0
 21 22  1  6
 21 20  1  0
 23 21  1  0
 23 24  1  6
 25 26  1  0
 25 23  1  0
 27 25  2  0
M  END
$$$$
