RIV.pdb
     RDKit          3D

 27 26  0  0  1  0  0  0  0  0999 V2000
   28.3078  -20.5709  -17.4135 N   0  0  0  0  0  0  0  0  0  0  0  0
   28.8908  -21.7921  -16.9774 C   0  0  0  0  0  0  0  0  0  0  0  0
   29.6791  -22.4093  -17.8101 N   0  0  0  0  0  0  0  0  0  0  0  0
   28.6144  -22.3009  -15.6871 N   0  0  0  0  0  0  0  0  0  0  0  0
   27.6442  -21.6937  -14.8374 C   0  0  0  0  0  0  0  0  0  0  0  0
   28.2467  -20.6852  -13.8846 C   0  0  0  0  0  0  0  0  0  0  0  0
   27.1967  -19.8949  -13.1529 C   0  0  0  0  0  0  0  0  0  0  0  0
   26.4527  -20.7201  -12.1341 C   0  0  2  0  0  0  0  0  0  0  0  0
   26.9538  -22.0735  -12.0313 N   0  0  0  0  0  0  0  0  0  0  0  0
   25.0269  -20.7677  -12.4871 C   0  0  0  0  0  0  0  0  0  0  0  0
   24.5781  -21.7323  -13.1555 O   0  0  0  0  0  0  0  0  0  0  0  0
   30.1464  -23.2953  -17.5868 C   0  0  0  0  0  0  0  0  0  0  0  0
   21.4910  -20.0710   -8.7913 C   0  0  0  0  0  0  0  0  0  0  0  0
   22.2979  -20.3386  -10.0132 C   0  0  2  0  0  0  0  0  0  0  0  0
   21.8412  -19.5731  -11.2245 C   0  0  0  0  0  0  0  0  0  0  0  0
   20.3745  -19.6904  -11.4802 C   0  0  2  0  0  0  0  0  0  0  0  0
   22.6865  -19.9225  -12.4112 N   0  0  0  0  0  0  0  0  0  0  0  0
   24.0847  -19.7697  -12.1162 C   0  0  0  0  0  0  0  0  0  0  0  0
   22.2789  -19.1717  -13.6233 O   0  0  0  0  0  0  0  0  0  0  0  0
   22.3104  -17.9177  -13.5626 C   0  0  0  0  0  0  0  0  0  0  0  0
   23.5676  -19.6738  -17.1090 C   0  0  1  0  0  0  0  0  0  0  0  0
   22.0676  -19.5967  -17.2809 C   0  0  0  0  0  0  0  0  0  0  0  0
   21.7259  -18.8045  -18.5060 C   0  0  2  0  0  0  0  0  0  0  0  0
   21.4943  -18.9961  -16.0184 N   0  0  0  0  0  0  0  0  0  0  0  0
   21.8589  -19.7572  -14.8385 C   0  0  0  0  0  0  0  0  0  0  0  0
   20.0226  -18.8825  -16.0588 O   0  0  0  0  0  0  0  0  0  0  0  0
   19.3863  -17.7340  -16.5048 O   0  0  0  0  0  0  0  0  0  0  0  0
  2  1  1  0
  3  2  2  0
  4  2  1  0
  5  4  1  0
  5  6  1  0
  7  6  1  0
  7  8  1  0
  8 10  1  0
  8  9  1  6
 10 11  2  0
 12 13  1  0
 14 15  1  1
 14 16  1  0
 14 13  1  0
 16 17  1  6
 17 10  1  0
 18 24  1  0
 18 16  1  0
 19 18  2  0
 21 22  1  6
 21 20  1  0
 23 21  1  0
 23 24  1  1
 25 26  1  0
 25 23  1  0
 27 25  2  0
M  END
$$$$
