RIV.pdb
     RDKit          3D

 27 26  0  0  1  0  0  0  0  0999 V2000
   21.3077  -19.1428  -17.9140 N   0  0  0  0  0  0  0  0  0  0  0  0
   21.6709  -17.7693  -17.8590 C   0  0  0  0  0  0  0  0  0  0  0  0
   21.5474  -17.0738  -18.9530 N   0  0  0  0  0  0  0  0  0  0  0  0
   22.1452  -17.1982  -16.6553 N   0  0  0  0  0  0  0  0  0  0  0  0
   22.1763  -17.9401  -15.4385 C   0  0  0  0  0  0  0  0  0  0  0  0
   21.2675  -19.1488  -15.4640 C   0  0  0  0  0  0  0  0  0  0  0  0
   21.3063  -19.9181  -14.1721 C   0  0  0  0  0  0  0  0  0  0  0  0
   22.7094  -20.1270  -13.6617 C   0  0  2  0  0  0  0  0  0  0  0  0
   23.5607  -20.8035  -14.6161 N   0  0  0  0  0  0  0  0  0  0  0  0
   22.6687  -20.9136  -12.4210 C   0  0  0  0  0  0  0  0  0  0  0  0
   22.3523  -22.1289  -12.4590 O   0  0  0  0  0  0  0  0  0  0  0  0
   21.7732  -16.0744  -19.0097 C   0  0  0  0  0  0  0  0  0  0  0  0
   26.0540  -19.7199   -8.4415 C   0  0  0  0  0  0  0  0  0  0  0  0
   25.1798  -20.4933   -9.3654 C   0  0  2  0  0  0  0  0  0  0  0  0
   23.7714  -20.6680   -8.8680 C   0  0  0  0  0  0  0  0  0  0  0  0
   23.6853  -21.4453   -7.5958 C   0  0  2  0  0  0  0  0  0  0  0  0
   22.8960  -21.2049   -9.9591 N   0  0  0  0  0  0  0  0  0  0  0  0
   22.9711  -20.3844  -11.1366 C   0  0  0  0  0  0  0  0  0  0  0  0
   21.5007  -21.4101   -9.5008 O   0  0  0  0  0  0  0  0  0  0  0  0
   20.7506  -20.4034   -9.4680 C   0  0  0  0  0  0  0  0  0  0  0  0
   18.7223  -23.1539  -10.9044 C   0  0  1  0  0  0  0  0  0  0  0  0
   18.8086  -23.7708   -9.5270 C   0  0  0  0  0  0  0  0  0  0  0  0
   17.4356  -24.0584   -9.0004 C   0  0  2  0  0  0  0  0  0  0  0  0
   19.5832  -22.8166   -8.6478 N   0  0  0  0  0  0  0  0  0  0  0  0
   20.9515  -22.6483   -9.0993 C   0  0  0  0  0  0  0  0  0  0  0  0
   19.6119  -23.2407   -7.2337 O   0  0  0  0  0  0  0  0  0  0  0  0
   20.6274  -24.0366   -6.7257 O   0  0  0  0  0  0  0  0  0  0  0  0
  2  1  1  0
  3  2  2  0
  4  2  1  0
  5  4  1  0
  5  6  1  0
  7  6  1  0
  7  8  1  0
  8 10  1  0
  8  9  1  6
 10 11  2  0
 12 13  1  0
 14 15  1  6
 14 16  1  0
 14 13  1  0
 16 17  1  6
 17 10  1  0
 18 24  1  0
 18 16  1  0
 19 18  2  0
 21 22  1  6
 21 20  1  0
 23 21  1  0
 23 24  1  1
 25 26  1  0
 25 23  1  0
 27 25  2  0
M  END
$$$$
