RIV.pdb
     RDKit          3D

 27 26  0  0  1  0  0  0  0  0999 V2000
   19.3863  -17.4845  -17.7029 N   0  0  0  0  0  0  0  0  0  0  0  0
   18.3606  -18.4500  -17.8959 C   0  0  0  0  0  0  0  0  0  0  0  0
   17.3554  -18.1116  -18.6515 N   0  0  0  0  0  0  0  0  0  0  0  0
   18.4456  -19.7221  -17.2839 N   0  0  0  0  0  0  0  0  0  0  0  0
   19.5440  -20.0760  -16.4471 C   0  0  0  0  0  0  0  0  0  0  0  0
   20.7709  -20.4867  -17.2305 C   0  0  0  0  0  0  0  0  0  0  0  0
   21.8823  -20.9668  -16.3380 C   0  0  0  0  0  0  0  0  0  0  0  0
   22.4802  -19.8599  -15.5073 C   0  0  2  0  0  0  0  0  0  0  0  0
   22.7178  -18.6516  -16.2668 N   0  0  0  0  0  0  0  0  0  0  0  0
   23.7519  -20.3134  -14.9269 C   0  0  0  0  0  0  0  0  0  0  0  0
   23.7998  -21.3945  -14.2886 O   0  0  0  0  0  0  0  0  0  0  0  0
   16.5470  -18.7224  -18.8147 C   0  0  0  0  0  0  0  0  0  0  0  0
   28.6326  -19.2335  -17.1377 C   0  0  0  0  0  0  0  0  0  0  0  0
   27.4343  -19.7734  -16.4388 C   0  0  2  0  0  0  0  0  0  0  0  0
   27.3914  -19.4558  -14.9695 C   0  0  0  0  0  0  0  0  0  0  0  0
   28.6486  -19.8174  -14.2490 C   0  0  2  0  0  0  0  0  0  0  0  0
   26.1566  -20.0328  -14.3472 N   0  0  0  0  0  0  0  0  0  0  0  0
   24.9742  -19.5957  -15.0373 C   0  0  0  0  0  0  0  0  0  0  0  0
   26.0925  -19.7654  -12.8901 O   0  0  0  0  0  0  0  0  0  0  0  0
   25.8488  -18.5871  -12.5303 C   0  0  0  0  0  0  0  0  0  0  0  0
   23.7908  -20.9977  -10.5528 C   0  0  1  0  0  0  0  0  0  0  0  0
   25.0771  -21.2711   -9.8070 C   0  0  0  0  0  0  0  0  0  0  0  0
   24.9095  -20.9576   -8.3513 C   0  0  2  0  0  0  0  0  0  0  0  0
   26.1655  -20.4506  -10.4595 N   0  0  0  0  0  0  0  0  0  0  0  0
   26.2840  -20.7319  -11.8776 C   0  0  0  0  0  0  0  0  0  0  0  0
   27.4874  -20.6582   -9.8349 O   0  0  0  0  0  0  0  0  0  0  0  0
   27.8650  -19.9958   -8.6768 O   0  0  0  0  0  0  0  0  0  0  0  0
  2  1  1  0
  3  2  2  0
  4  2  1  0
  5  4  1  0
  5  6  1  0
  7  6  1  0
  7  8  1  0
  8 10  1  0
  8  9  1  6
 10 11  2  0
 12 13  1  0
 14 15  1  1
 14 16  1  0
 14 13  1  0
 16 17  1  1
 17 10  1  0
 18 24  1  0
 18 16  1  0
 19 18  2  0
 21 22  1  1
 21 20  1  0
 23 21  1  0
 23 24  1  1
 25 26  1  0
 25 23  1  0
 27 25  2  0
M  END
$$$$
