GNT.pdb
     RDKit          3D

 20 19  0  0  1  0  0  0  0  0999 V2000
   26.7180  -21.1028  -10.7578 N   0  0  0  0  0  0  0  0  0  0  0  0
   26.8068  -21.1779  -12.2028 C   0  0  0  0  0  0  0  0  0  0  0  0
   25.7680  -20.3170  -12.8452 C   0  0  0  0  0  0  0  0  0  0  0  0
   24.9149  -19.6891  -12.1821 O   0  0  0  0  0  0  0  0  0  0  0  0
   26.8700  -17.3778  -14.3557 N   0  0  0  0  0  0  0  0  0  0  0  0
   26.6094  -17.6653  -15.7325 C   0  0  0  0  0  0  0  0  0  0  0  0
   27.3431  -17.0937  -16.5599 O   0  0  0  0  0  0  0  0  0  0  0  0
   25.5250  -18.5895  -16.0800 C   0  0  0  0  0  0  0  0  0  0  0  0
   24.8296  -19.2461  -14.9348 C   0  0  2  0  0  0  0  0  0  0  0  0
   25.7331  -20.1959  -14.2569 N   0  0  0  0  0  0  0  0  0  0  0  0
   23.5914  -19.9914  -15.3421 C   0  0  0  0  0  0  0  0  0  0  0  0
   23.5562  -20.8999  -16.1981 O   0  0  0  0  0  0  0  0  0  0  0  0
   21.4489  -22.1746  -13.2930 C   0  0  0  0  0  0  0  0  0  0  0  0
   20.6218  -21.0094  -13.7583 C   0  0  1  0  0  0  0  0  0  0  0  0
   20.4479  -20.0475  -12.7671 O   0  0  0  0  0  0  0  0  0  0  0  0
   21.1395  -20.4103  -15.0573 C   0  0  2  0  0  0  0  0  0  0  0  0
   22.3296  -19.6547  -14.7141 N   0  0  0  0  0  0  0  0  0  0  0  0
   20.0986  -19.4568  -15.5175 C   0  0  0  0  0  0  0  0  0  0  0  0
   18.8615  -19.8807  -15.9901 O   0  0  0  0  0  0  0  0  0  0  0  0
   20.3475  -18.2294  -15.4770 O   0  0  0  0  0  0  0  0  0  0  0  0
  1  2  1  0
  2  3  1  0
  3  4  2  0
  5  6  1  0
  6  8  1  0
  7  6  2  0
  9  8  1  6
 10  9  1  0
 10  3  1  0
 11 12  2  0
 11  9  1  0
 14 13  1  1
 14 16  1  0
 15 14  1  0
 16 17  1  1
 16 18  1  0
 17 11  1  0
 18 19  1  0
 20 18  2  0
M  END
$$$$
