GNT.pdb
     RDKit          3D

 20 19  0  0  1  0  0  0  0  0999 V2000
   18.0137  -14.3260  -16.0560 N   0  0  0  0  0  0  0  0  0  0  0  0
   16.9546  -13.4657  -16.5456 C   0  0  0  0  0  0  0  0  0  0  0  0
   17.4278  -12.0531  -16.6624 C   0  0  0  0  0  0  0  0  0  0  0  0
   18.1353  -11.6603  -17.6147 O   0  0  0  0  0  0  0  0  0  0  0  0
   15.8359   -8.7380  -17.8927 N   0  0  0  0  0  0  0  0  0  0  0  0
   15.4709   -8.3517  -16.5646 C   0  0  0  0  0  0  0  0  0  0  0  0
   14.4616   -7.6303  -16.4619 O   0  0  0  0  0  0  0  0  0  0  0  0
   16.2825   -8.8140  -15.4339 C   0  0  0  0  0  0  0  0  0  0  0  0
   17.4447   -9.6860  -15.7731 C   0  0  2  0  0  0  0  0  0  0  0  0
   17.0714  -11.1099  -15.6664 N   0  0  0  0  0  0  0  0  0  0  0  0
   18.6387   -9.4507  -14.8935 C   0  0  0  0  0  0  0  0  0  0  0  0
   18.6574   -9.6236  -13.6570 O   0  0  0  0  0  0  0  0  0  0  0  0
   22.3249  -10.7996  -15.4066 C   0  0  0  0  0  0  0  0  0  0  0  0
   22.2330   -9.2999  -15.4349 C   0  0  1  0  0  0  0  0  0  0  0  0
   22.2845   -8.7855  -16.7275 O   0  0  0  0  0  0  0  0  0  0  0  0
   21.0376   -8.7754  -14.6538 C   0  0  2  0  0  0  0  0  0  0  0  0
   19.8739   -8.9887  -15.4938 N   0  0  0  0  0  0  0  0  0  0  0  0
   21.2465   -7.3126  -14.5097 C   0  0  0  0  0  0  0  0  0  0  0  0
   22.1729   -6.7799  -13.6199 O   0  0  0  0  0  0  0  0  0  0  0  0
   20.5627   -6.5351  -15.2155 O   0  0  0  0  0  0  0  0  0  0  0  0
  1  2  1  0
  2  3  1  0
  3  4  2  0
  5  6  1  0
  6  8  1  0
  7  6  2  0
  9  8  1  1
 10  9  1  0
 10  3  1  0
 11 12  2  0
 11  9  1  0
 14 13  1  6
 14 16  1  0
 15 14  1  0
 16 17  1  6
 16 18  1  0
 17 11  1  0
 18 19  1  0
 20 18  2  0
M  END
$$$$
