GNT.pdb
     RDKit          3D

 20 19  0  0  1  0  0  0  0  0999 V2000
   24.2710  -19.9244   -8.3666 N   0  0  0  0  0  0  0  0  0  0  0  0
   25.2438  -20.7668   -9.0339 C   0  0  0  0  0  0  0  0  0  0  0  0
   25.5312  -20.2603  -10.4101 C   0  0  0  0  0  0  0  0  0  0  0  0
   24.9463  -19.2677  -10.8942 O   0  0  0  0  0  0  0  0  0  0  0  0
   30.0984  -20.8694  -11.1985 N   0  0  0  0  0  0  0  0  0  0  0  0
   29.3136  -20.1235  -12.1333 C   0  0  0  0  0  0  0  0  0  0  0  0
   29.5886  -18.9139  -12.2373 O   0  0  0  0  0  0  0  0  0  0  0  0
   28.2612  -20.8063  -12.8931 C   0  0  0  0  0  0  0  0  0  0  0  0
   26.8577  -20.4282  -12.5563 C   0  0  2  0  0  0  0  0  0  0  0  0
   26.4991  -20.9168  -11.2106 N   0  0  0  0  0  0  0  0  0  0  0  0
   25.8493  -20.9654  -13.5306 C   0  0  0  0  0  0  0  0  0  0  0  0
   25.5414  -22.1701  -13.6452 O   0  0  0  0  0  0  0  0  0  0  0  0
   22.0765  -19.8256  -14.1412 C   0  0  0  0  0  0  0  0  0  0  0  0
   23.0062  -19.5666  -15.2931 C   0  0  1  0  0  0  0  0  0  0  0  0
   23.4347  -18.2431  -15.3470 O   0  0  0  0  0  0  0  0  0  0  0  0
   24.1663  -20.5496  -15.3369 C   0  0  2  0  0  0  0  0  0  0  0  0
   25.1669  -20.0435  -14.4161 N   0  0  0  0  0  0  0  0  0  0  0  0
   24.7196  -20.4763  -16.7127 C   0  0  0  0  0  0  0  0  0  0  0  0
   24.0473  -21.0004  -17.8113 O   0  0  0  0  0  0  0  0  0  0  0  0
   25.8304  -19.9226  -16.8854 O   0  0  0  0  0  0  0  0  0  0  0  0
  1  2  1  0
  2  3  1  0
  3  4  2  0
  5  6  1  0
  6  8  1  0
  7  6  2  0
  9  8  1  6
 10  9  1  0
 10  3  1  0
 11 12  2  0
 11  9  1  0
 14 13  1  1
 14 16  1  0
 15 14  1  0
 16 17  1  1
 16 18  1  0
 17 11  1  0
 18 19  1  0
 20 18  2  0
M  END
$$$$
