GNT.pdb
     RDKit          3D

 20 19  0  0  1  0  0  0  0  0999 V2000
   18.5124  -10.2628  -16.4100 N   0  0  0  0  0  0  0  0  0  0  0  0
   19.8265  -10.8027  -16.6983 C   0  0  0  0  0  0  0  0  0  0  0  0
   20.8854  -10.0458  -15.9643 C   0  0  0  0  0  0  0  0  0  0  0  0
   21.0685  -10.1721  -14.7346 O   0  0  0  0  0  0  0  0  0  0  0  0
   24.0384  -10.7728  -15.2228 N   0  0  0  0  0  0  0  0  0  0  0  0
   24.7552   -9.9025  -16.1031 C   0  0  0  0  0  0  0  0  0  0  0  0
   25.9056  -10.2630  -16.4129 O   0  0  0  0  0  0  0  0  0  0  0  0
   24.1126   -8.6719  -16.5761 C   0  0  0  0  0  0  0  0  0  0  0  0
   22.7739   -8.3645  -15.9934 C   0  0  2  0  0  0  0  0  0  0  0  0
   21.7225   -9.1471  -16.6717 N   0  0  0  0  0  0  0  0  0  0  0  0
   22.4064   -6.9116  -16.0872 C   0  0  0  0  0  0  0  0  0  0  0  0
   22.4839   -6.2231  -17.1260 O   0  0  0  0  0  0  0  0  0  0  0  0
   19.3305   -5.1693  -16.0514 C   0  0  0  0  0  0  0  0  0  0  0  0
   20.0692   -4.7409  -14.8148 C   0  0  1  0  0  0  0  0  0  0  0  0
   19.6281   -5.4029  -13.6724 O   0  0  0  0  0  0  0  0  0  0  0  0
   21.5791   -4.8234  -14.9811 C   0  0  2  0  0  0  0  0  0  0  0  0
   21.9234   -6.2308  -14.9028 N   0  0  0  0  0  0  0  0  0  0  0  0
   22.1638   -4.1343  -13.8032 C   0  0  0  0  0  0  0  0  0  0  0  0
   22.1140   -2.7529  -13.6519 O   0  0  0  0  0  0  0  0  0  0  0  0
   22.7203   -4.8246  -12.9177 O   0  0  0  0  0  0  0  0  0  0  0  0
  1  2  1  0
  2  3  1  0
  3  4  2  0
  5  6  1  0
  6  8  1  0
  7  6  2  0
  9  8  1  6
 10  9  1  0
 10  3  1  0
 11 12  2  0
 11  9  1  0
 14 13  1  6
 14 16  1  0
 15 14  1  0
 16 17  1  1
 16 18  1  0
 17 11  1  0
 18 19  1  0
 20 18  2  0
M  END
$$$$
