GNT.pdb
     RDKit          3D

 20 19  0  0  1  0  0  0  0  0999 V2000
   19.4104  -10.8467  -18.3182 N   0  0  0  0  0  0  0  0  0  0  0  0
   18.8659  -10.3734  -17.0609 C   0  0  0  0  0  0  0  0  0  0  0  0
   19.9435   -9.8077  -16.1938 C   0  0  0  0  0  0  0  0  0  0  0  0
   19.7897   -9.6257  -14.9670 O   0  0  0  0  0  0  0  0  0  0  0  0
   24.4032  -11.8553  -16.6740 N   0  0  0  0  0  0  0  0  0  0  0  0
   23.8900  -10.8381  -15.8090 C   0  0  0  0  0  0  0  0  0  0  0  0
   23.7252  -11.1630  -14.6188 O   0  0  0  0  0  0  0  0  0  0  0  0
   23.5964   -9.5101  -16.3580 C   0  0  0  0  0  0  0  0  0  0  0  0
   22.2936   -8.9058  -15.9533 C   0  0  2  0  0  0  0  0  0  0  0  0
   21.1925   -9.4587  -16.7657 N   0  0  0  0  0  0  0  0  0  0  0  0
   22.2666   -7.4106  -16.0887 C   0  0  0  0  0  0  0  0  0  0  0  0
   22.6445   -6.7800  -17.0980 O   0  0  0  0  0  0  0  0  0  0  0  0
   19.5270   -5.1904  -16.3731 C   0  0  0  0  0  0  0  0  0  0  0  0
   20.2308   -4.8032  -15.1030 C   0  0  1  0  0  0  0  0  0  0  0  0
   19.5830   -5.2792  -13.9665 O   0  0  0  0  0  0  0  0  0  0  0  0
   21.7069   -5.1705  -15.1206 C   0  0  2  0  0  0  0  0  0  0  0  0
   21.7715   -6.6136  -14.9844 N   0  0  0  0  0  0  0  0  0  0  0  0
   22.3001   -4.5606  -13.9039 C   0  0  0  0  0  0  0  0  0  0  0  0
   22.4937   -3.1890  -13.7809 O   0  0  0  0  0  0  0  0  0  0  0  0
   22.6364   -5.3106  -12.9581 O   0  0  0  0  0  0  0  0  0  0  0  0
  1  2  1  0
  2  3  1  0
  3  4  2  0
  5  6  1  0
  6  8  1  0
  7  6  2  0
  9  8  1  6
 10  9  1  0
 10  3  1  0
 11 12  2  0
 11  9  1  0
 14 13  1  6
 14 16  1  0
 15 14  1  0
 16 17  1  1
 16 18  1  0
 17 11  1  0
 18 19  1  0
 20 18  2  0
M  END
$$$$
