GNT.pdb
     RDKit          3D

 20 19  0  0  1  0  0  0  0  0999 V2000
   23.1345  -23.2375  -13.9325 N   0  0  0  0  0  0  0  0  0  0  0  0
   22.3656  -22.0090  -13.8987 C   0  0  0  0  0  0  0  0  0  0  0  0
   23.0078  -21.0040  -12.9985 C   0  0  0  0  0  0  0  0  0  0  0  0
   22.4757  -19.9044  -12.7347 O   0  0  0  0  0  0  0  0  0  0  0  0
   23.1728  -20.5187   -9.3730 N   0  0  0  0  0  0  0  0  0  0  0  0
   24.4864  -21.0573   -9.1977 C   0  0  0  0  0  0  0  0  0  0  0  0
   24.7252  -21.5684   -8.0881 O   0  0  0  0  0  0  0  0  0  0  0  0
   25.4478  -20.9786  -10.3025 C   0  0  0  0  0  0  0  0  0  0  0  0
   24.9628  -20.3175  -11.5490 C   0  0  2  0  0  0  0  0  0  0  0  0
   24.2664  -21.2903  -12.4132 N   0  0  0  0  0  0  0  0  0  0  0  0
   26.0637  -19.6864  -12.3518 C   0  0  0  0  0  0  0  0  0  0  0  0
   26.7757  -18.7377  -11.9616 O   0  0  0  0  0  0  0  0  0  0  0  0
   29.3234  -20.5485  -13.2993 C   0  0  0  0  0  0  0  0  0  0  0  0
   28.5286  -20.5027  -14.5739 C   0  0  1  0  0  0  0  0  0  0  0  0
   28.1439  -21.7676  -15.0098 O   0  0  0  0  0  0  0  0  0  0  0  0
   27.3536  -19.5398  -14.4926 C   0  0  2  0  0  0  0  0  0  0  0  0
   26.3444  -20.1930  -13.6801 N   0  0  0  0  0  0  0  0  0  0  0  0
   26.8272  -19.4109  -15.8749 C   0  0  0  0  0  0  0  0  0  0  0  0
   25.5680  -19.8780  -16.2354 O   0  0  0  0  0  0  0  0  0  0  0  0
   27.5452  -18.8622  -16.7430 O   0  0  0  0  0  0  0  0  0  0  0  0
  1  2  1  0
  2  3  1  0
  3  4  2  0
  5  6  1  0
  6  8  1  0
  7  6  2  0
  9  8  1  1
 10  9  1  0
 10  3  1  0
 11 12  2  0
 11  9  1  0
 14 13  1  1
 14 16  1  0
 15 14  1  0
 16 17  1  1
 16 18  1  0
 17 11  1  0
 18 19  1  0
 20 18  2  0
M  END
$$$$
