GNT.pdb
     RDKit          3D

 20 19  0  0  1  0  0  0  0  0999 V2000
   17.3227  -12.0415  -16.2856 N   0  0  0  0  0  0  0  0  0  0  0  0
   17.9124  -11.4046  -15.1246 C   0  0  0  0  0  0  0  0  0  0  0  0
   18.0699   -9.9352  -15.3464 C   0  0  0  0  0  0  0  0  0  0  0  0
   18.6828   -9.4683  -16.3304 O   0  0  0  0  0  0  0  0  0  0  0  0
   15.5234   -7.5844  -16.3503 N   0  0  0  0  0  0  0  0  0  0  0  0
   15.3520   -6.8787  -15.1178 C   0  0  0  0  0  0  0  0  0  0  0  0
   14.2458   -6.3340  -14.9477 O   0  0  0  0  0  0  0  0  0  0  0  0
   16.4568   -6.8388  -14.1540 C   0  0  0  0  0  0  0  0  0  0  0  0
   17.6992   -7.5644  -14.5491 C   0  0  2  0  0  0  0  0  0  0  0  0
   17.5107   -9.0222  -14.4178 N   0  0  0  0  0  0  0  0  0  0  0  0
   18.8978   -7.1747  -13.7328 C   0  0  0  0  0  0  0  0  0  0  0  0
   18.9571   -7.2235  -12.4864 O   0  0  0  0  0  0  0  0  0  0  0  0
   22.4992   -8.4728  -13.7874 C   0  0  0  0  0  0  0  0  0  0  0  0
   22.4370   -7.0348  -14.2195 C   0  0  1  0  0  0  0  0  0  0  0  0
   22.5157   -6.8882  -15.6016 O   0  0  0  0  0  0  0  0  0  0  0  0
   21.2419   -6.3012  -13.6299 C   0  0  2  0  0  0  0  0  0  0  0  0
   20.0879   -6.7034  -14.4120 N   0  0  0  0  0  0  0  0  0  0  0  0
   21.4848   -4.8559  -13.8671 C   0  0  0  0  0  0  0  0  0  0  0  0
   20.7154   -4.1104  -14.7537 O   0  0  0  0  0  0  0  0  0  0  0  0
   22.4156   -4.2926  -13.2454 O   0  0  0  0  0  0  0  0  0  0  0  0
  1  2  1  0
  2  3  1  0
  3  4  2  0
  5  6  1  0
  6  8  1  0
  7  6  2  0
  9  8  1  1
 10  9  1  0
 10  3  1  0
 11 12  2  0
 11  9  1  0
 14 13  1  6
 14 16  1  0
 15 14  1  0
 16 17  1  6
 16 18  1  0
 17 11  1  0
 18 19  1  0
 20 18  2  0
M  END
$$$$
