GNT.pdb
     RDKit          3D

 20 19  0  0  1  0  0  0  0  0999 V2000
   19.5267  -21.4950  -10.6534 N   0  0  0  0  0  0  0  0  0  0  0  0
   20.4493  -22.1023  -11.5921 C   0  0  0  0  0  0  0  0  0  0  0  0
   21.4872  -21.1201  -12.0292 C   0  0  0  0  0  0  0  0  0  0  0  0
   21.2612  -19.8929  -12.0979 O   0  0  0  0  0  0  0  0  0  0  0  0
   24.6211  -20.5529  -10.1506 N   0  0  0  0  0  0  0  0  0  0  0  0
   25.5288  -21.1495  -11.0814 C   0  0  0  0  0  0  0  0  0  0  0  0
   26.5768  -21.6185  -10.6006 O   0  0  0  0  0  0  0  0  0  0  0  0
   25.1828  -21.1737  -12.5065 C   0  0  0  0  0  0  0  0  0  0  0  0
   23.8292  -20.6566  -12.8623 C   0  0  2  0  0  0  0  0  0  0  0  0
   22.7809  -21.5781  -12.3829 N   0  0  0  0  0  0  0  0  0  0  0  0
   23.6385  -20.4625  -14.3390 C   0  0  0  0  0  0  0  0  0  0  0  0
   23.6322  -21.3825  -15.1832 O   0  0  0  0  0  0  0  0  0  0  0  0
   20.7539  -19.3825  -16.2623 C   0  0  0  0  0  0  0  0  0  0  0  0
   21.8292  -18.3442  -16.4175 C   0  0  1  0  0  0  0  0  0  0  0  0
   21.6312  -17.2418  -15.5907 O   0  0  0  0  0  0  0  0  0  0  0  0
   23.2267  -18.9279  -16.2739 C   0  0  2  0  0  0  0  0  0  0  0  0
   23.4456  -19.1213  -14.8526 N   0  0  0  0  0  0  0  0  0  0  0  0
   24.1642  -17.8803  -16.7514 C   0  0  0  0  0  0  0  0  0  0  0  0
   24.2764  -17.5426  -18.0957 O   0  0  0  0  0  0  0  0  0  0  0  0
   24.8768  -17.2829  -15.9114 O   0  0  0  0  0  0  0  0  0  0  0  0
  1  2  1  0
  2  3  1  0
  3  4  2  0
  5  6  1  0
  6  8  1  0
  7  6  2  0
  9  8  1  6
 10  9  1  0
 10  3  1  0
 11 12  2  0
 11  9  1  0
 14 13  1  1
 14 16  1  0
 15 14  1  0
 16 17  1  1
 16 18  1  0
 17 11  1  0
 18 19  1  0
 20 18  2  0
M  END
$$$$
