GNT.pdb
     RDKit          3D

 20 19  0  0  1  0  0  0  0  0999 V2000
   17.9048  -11.2916  -17.1284 N   0  0  0  0  0  0  0  0  0  0  0  0
   18.3760   -9.9452  -17.3866 C   0  0  0  0  0  0  0  0  0  0  0  0
   19.2737   -9.4759  -16.2880 C   0  0  0  0  0  0  0  0  0  0  0  0
   19.0308   -9.6998  -15.0828 O   0  0  0  0  0  0  0  0  0  0  0  0
   21.6638  -10.1390  -13.5115 N   0  0  0  0  0  0  0  0  0  0  0  0
   22.7219  -10.0057  -14.4649 C   0  0  0  0  0  0  0  0  0  0  0  0
   23.6828  -10.7853  -14.3295 O   0  0  0  0  0  0  0  0  0  0  0  0
   22.6170   -8.9882  -15.5160 C   0  0  0  0  0  0  0  0  0  0  0  0
   21.3409   -8.2162  -15.5574 C   0  0  2  0  0  0  0  0  0  0  0  0
   20.4481   -8.7486  -16.6050 N   0  0  0  0  0  0  0  0  0  0  0  0
   21.5429   -6.7513  -15.8183 C   0  0  0  0  0  0  0  0  0  0  0  0
   21.9877   -6.2721  -16.8821 O   0  0  0  0  0  0  0  0  0  0  0  0
   19.1194   -3.9234  -15.9697 C   0  0  0  0  0  0  0  0  0  0  0  0
   20.0498   -3.7192  -14.8073 C   0  0  1  0  0  0  0  0  0  0  0  0
   19.4735   -4.0779  -13.5919 O   0  0  0  0  0  0  0  0  0  0  0  0
   21.4022   -4.3821  -15.0211 C   0  0  2  0  0  0  0  0  0  0  0  0
   21.2065   -5.7993  -14.7789 N   0  0  0  0  0  0  0  0  0  0  0  0
   22.2972   -3.8479  -13.9637 C   0  0  0  0  0  0  0  0  0  0  0  0
   22.7679   -2.5396  -13.9819 O   0  0  0  0  0  0  0  0  0  0  0  0
   22.6375   -4.6050  -13.0250 O   0  0  0  0  0  0  0  0  0  0  0  0
  1  2  1  0
  2  3  1  0
  3  4  2  0
  5  6  1  0
  6  8  1  0
  7  6  2  0
  9  8  1  6
 10  9  1  0
 10  3  1  0
 11 12  2  0
 11  9  1  0
 14 13  1  6
 14 16  1  0
 15 14  1  0
 16 17  1  1
 16 18  1  0
 17 11  1  0
 18 19  1  0
 20 18  2  0
M  END
$$$$
