FQH.pdb
     RDKit          3D

 31 32  0  0  1  0  0  0  0  0999 V2000
   14.2096  -12.1334  -16.4218 N   0  0  0  0  0  0  0  0  0  0  0  0
   15.3813  -11.5239  -15.8025 C   0  0  1  0  0  0  0  0  0  0  0  0
   16.6592  -12.0426  -16.4753 C   0  0  0  0  0  0  0  0  0  0  0  0
   16.7148  -13.4950  -16.1847 C   0  0  0  0  0  0  0  0  0  0  0  0
   17.1827  -13.9726  -14.9800 C   0  0  0  0  0  0  0  0  0  0  0  0
   17.2349  -15.3357  -14.7072 C   0  0  0  0  0  0  0  0  0  0  0  0
   16.8174  -16.2587  -15.6394 C   0  0  0  0  0  0  0  0  0  0  0  0
   16.3484  -15.7859  -16.8459 C   0  0  0  0  0  0  0  0  0  0  0  0
   16.2971  -14.4160  -17.1175 C   0  0  0  0  0  0  0  0  0  0  0  0
   15.3103  -10.0404  -15.8664 C   0  0  0  0  0  0  0  0  0  0  0  0
   15.0817   -9.5204  -16.9775 O   0  0  0  0  0  0  0  0  0  0  0  0
   11.7315   -5.3717  -13.5280 N   0  0  0  0  0  0  0  0  0  0  0  0
   13.0590   -5.3535  -13.0362 C   0  0  0  0  0  0  0  0  0  0  0  0
   13.2587   -4.9884  -11.8574 O   0  0  0  0  0  0  0  0  0  0  0  0
   14.1878   -5.7586  -13.9001 C   0  0  0  0  0  0  0  0  0  0  0  0
   14.2872   -7.2422  -13.9112 C   0  0  0  0  0  0  0  0  0  0  0  0
   15.4095   -7.7724  -14.7663 C   0  0  2  0  0  0  0  0  0  0  0  0
   15.4918   -9.2182  -14.7217 N   0  0  0  0  0  0  0  0  0  0  0  0
   16.7059   -7.1544  -14.4673 C   0  0  0  0  0  0  0  0  0  0  0  0
   17.5426   -7.7474  -13.7409 O   0  0  0  0  0  0  0  0  0  0  0  0
   17.0746   -5.8794  -14.9735 N   0  0  0  0  0  0  0  0  0  0  0  0
   18.4404   -5.4031  -14.9863 C   0  0  1  0  0  0  0  0  0  0  0  0
   19.2508   -6.3474  -15.8827 C   0  0  0  0  0  0  0  0  0  0  0  0
   20.1679   -7.1920  -15.1109 C   0  0  0  0  0  0  0  0  0  0  0  0
   20.3941   -7.1235  -13.7588 C   0  0  0  0  0  0  0  0  0  0  0  0
   21.3030   -8.0739  -13.4691 N   0  0  0  0  0  0  0  0  0  0  0  0
   21.6335   -8.7153  -14.6048 C   0  0  0  0  0  0  0  0  0  0  0  0
   20.9393   -8.1795  -15.6231 N   0  0  0  0  0  0  0  0  0  0  0  0
   18.5017   -4.0172  -15.4840 C   0  0  0  0  0  0  0  0  0  0  0  0
   17.5770   -3.5273  -16.1821 O   0  0  0  0  0  0  0  0  0  0  0  0
   19.6024   -3.2353  -15.1767 O   0  0  0  0  0  0  0  0  0  0  0  0
  2  1  1  6
  2 10  1  0
  2  3  1  0
  3  4  1  0
  4  5  2  0
  5  6  1  0
  7  6  2  0
  8  7  1  0
  9  4  1  0
  9  8  2  0
 10 18  1  0
 11 10  2  0
 13 15  1  0
 13 12  1  0
 14 13  2  0
 16 15  1  0
 17 16  1  1
 18 17  1  0
 19 20  2  0
 19 17  1  0
 21 19  1  0
 22 29  1  0
 22 21  1  0
 22 23  1  6
 24 23  1  0
 25 24  2  0
 26 27  1  0
 26 25  1  0
 27 28  2  0
 28 24  1  0
 29 31  1  0
 30 29  2  0
M  END
$$$$
