FQH.pdb
     RDKit          3D

 31 32  0  0  1  0  0  0  0  0999 V2000
   15.6394  -10.4246  -10.4114 N   0  0  0  0  0  0  0  0  0  0  0  0
   15.1895   -9.0873  -10.0409 C   0  0  1  0  0  0  0  0  0  0  0  0
   14.6131   -9.1034   -8.6188 C   0  0  0  0  0  0  0  0  0  0  0  0
   13.1637   -9.3757   -8.7670 C   0  0  0  0  0  0  0  0  0  0  0  0
   12.6582  -10.6552   -8.6913 C   0  0  0  0  0  0  0  0  0  0  0  0
   11.2979  -10.9108   -8.8304 C   0  0  0  0  0  0  0  0  0  0  0  0
   10.4058   -9.8855   -9.0500 C   0  0  0  0  0  0  0  0  0  0  0  0
   10.9065   -8.6040   -9.1266 C   0  0  0  0  0  0  0  0  0  0  0  0
   12.2736   -8.3499   -8.9865 C   0  0  0  0  0  0  0  0  0  0  0  0
   16.2940   -8.0992  -10.1568 C   0  0  0  0  0  0  0  0  0  0  0  0
   17.2884   -8.2553   -9.4192 O   0  0  0  0  0  0  0  0  0  0  0  0
   18.9106   -7.4201  -15.2475 N   0  0  0  0  0  0  0  0  0  0  0  0
   19.5205   -6.9591  -14.0560 C   0  0  0  0  0  0  0  0  0  0  0  0
   20.6357   -6.3987  -14.1290 O   0  0  0  0  0  0  0  0  0  0  0  0
   18.8518   -7.1370  -12.7500 C   0  0  0  0  0  0  0  0  0  0  0  0
   17.9501   -5.9811  -12.5009 C   0  0  0  0  0  0  0  0  0  0  0  0
   17.2895   -6.0030  -11.1463 C   0  0  2  0  0  0  0  0  0  0  0  0
   16.2480   -7.0069  -11.0646 N   0  0  0  0  0  0  0  0  0  0  0  0
   16.7978   -4.6878  -10.7213 C   0  0  0  0  0  0  0  0  0  0  0  0
   15.7713   -4.1900  -11.2484 O   0  0  0  0  0  0  0  0  0  0  0  0
   17.4441   -3.9248   -9.7124 N   0  0  0  0  0  0  0  0  0  0  0  0
   16.9911   -2.6121   -9.3076 C   0  0  1  0  0  0  0  0  0  0  0  0
   17.7697   -2.2235   -8.0447 C   0  0  0  0  0  0  0  0  0  0  0  0
   17.3510   -0.9221   -7.5147 C   0  0  0  0  0  0  0  0  0  0  0  0
   16.3148   -0.1501   -7.9778 C   0  0  0  0  0  0  0  0  0  0  0  0
   16.2814    0.9554   -7.2095 N   0  0  0  0  0  0  0  0  0  0  0  0
   17.2659    0.8756   -6.2958 C   0  0  0  0  0  0  0  0  0  0  0  0
   17.9315   -0.2780   -6.4751 N   0  0  0  0  0  0  0  0  0  0  0  0
   17.2089   -1.6325  -10.3870 C   0  0  0  0  0  0  0  0  0  0  0  0
   18.2502   -1.6515  -11.0924 O   0  0  0  0  0  0  0  0  0  0  0  0
   16.2455   -0.6684  -10.6312 O   0  0  0  0  0  0  0  0  0  0  0  0
  2  1  1  1
  2 10  1  0
  2  3  1  0
  3  4  1  0
  4  5  2  0
  5  6  1  0
  7  6  2  0
  8  7  1  0
  9  4  1  0
  9  8  2  0
 10 18  1  0
 11 10  2  0
 13 15  1  0
 13 12  1  0
 14 13  2  0
 16 15  1  0
 17 16  1  6
 18 17  1  0
 19 20  2  0
 19 17  1  0
 21 19  1  0
 22 29  1  0
 22 21  1  0
 22 23  1  1
 24 23  1  0
 25 24  2  0
 26 27  1  0
 26 25  1  0
 27 28  2  0
 28 24  1  0
 29 31  1  0
 30 29  2  0
M  END
$$$$
