FQH.pdb
     RDKit          3D

 31 32  0  0  1  0  0  0  0  0999 V2000
   27.0089  -17.6215  -17.5076 N   0  0  0  0  0  0  0  0  0  0  0  0
   26.4273  -17.4282  -16.1838 C   0  0  1  0  0  0  0  0  0  0  0  0
   25.4892  -16.2139  -16.1957 C   0  0  0  0  0  0  0  0  0  0  0  0
   26.3632  -15.0219  -16.3064 C   0  0  0  0  0  0  0  0  0  0  0  0
   27.1311  -14.5891  -15.2474 C   0  0  0  0  0  0  0  0  0  0  0  0
   27.9514  -13.4705  -15.3512 C   0  0  0  0  0  0  0  0  0  0  0  0
   28.0230  -12.7540  -16.5247 C   0  0  0  0  0  0  0  0  0  0  0  0
   27.2569  -13.1830  -17.5867 C   0  0  0  0  0  0  0  0  0  0  0  0
   26.4336  -14.3071  -17.4799 C   0  0  0  0  0  0  0  0  0  0  0  0
   25.7118  -18.6495  -15.7296 C   0  0  0  0  0  0  0  0  0  0  0  0
   25.2510  -19.4087  -16.6063 O   0  0  0  0  0  0  0  0  0  0  0  0
   26.1022  -22.6626  -10.8405 N   0  0  0  0  0  0  0  0  0  0  0  0
   25.4698  -21.4613  -10.4389 C   0  0  0  0  0  0  0  0  0  0  0  0
   25.1362  -21.3284   -9.2414 O   0  0  0  0  0  0  0  0  0  0  0  0
   25.2087  -20.3843  -11.4169 C   0  0  0  0  0  0  0  0  0  0  0  0
   25.6462  -20.8320  -12.7657 C   0  0  0  0  0  0  0  0  0  0  0  0
   24.8950  -20.1805  -13.8985 C   0  0  2  0  0  0  0  0  0  0  0  0
   25.5429  -18.9676  -14.3550 N   0  0  0  0  0  0  0  0  0  0  0  0
   23.4789  -19.9474  -13.5948 C   0  0  0  0  0  0  0  0  0  0  0  0
   23.1047  -18.8557  -13.0973 O   0  0  0  0  0  0  0  0  0  0  0  0
   22.4779  -20.9244  -13.8427 N   0  0  0  0  0  0  0  0  0  0  0  0
   21.0664  -20.6113  -13.8843 C   0  0  1  0  0  0  0  0  0  0  0  0
   20.7326  -20.1705  -15.3148 C   0  0  0  0  0  0  0  0  0  0  0  0
   20.6639  -18.7115  -15.4428 C   0  0  0  0  0  0  0  0  0  0  0  0
   20.8337  -17.7972  -14.4331 C   0  0  0  0  0  0  0  0  0  0  0  0
   20.6893  -16.5778  -14.9859 N   0  0  0  0  0  0  0  0  0  0  0  0
   20.4373  -16.7266  -16.2992 C   0  0  0  0  0  0  0  0  0  0  0  0
   20.4195  -18.0381  -16.5915 N   0  0  0  0  0  0  0  0  0  0  0  0
   20.2634  -21.7824  -13.4896 C   0  0  0  0  0  0  0  0  0  0  0  0
   20.7206  -22.9515  -13.5717 O   0  0  0  0  0  0  0  0  0  0  0  0
   18.9757  -21.5927  -13.0172 O   0  0  0  0  0  0  0  0  0  0  0  0
  2  1  1  6
  2 10  1  0
  2  3  1  0
  3  4  1  0
  4  5  2  0
  5  6  1  0
  7  6  2  0
  8  7  1  0
  9  4  1  0
  9  8  2  0
 10 18  1  0
 11 10  2  0
 13 15  1  0
 13 12  1  0
 14 13  2  0
 16 15  1  0
 17 16  1  1
 18 17  1  0
 19 20  2  0
 19 17  1  0
 21 19  1  0
 22 29  1  0
 22 21  1  0
 22 23  1  6
 24 23  1  0
 25 24  2  0
 26 27  1  0
 26 25  1  0
 27 28  2  0
 28 24  1  0
 29 31  1  0
 30 29  2  0
M  END
$$$$
