FQH.pdb
     RDKit          3D

 31 32  0  0  1  0  0  0  0  0999 V2000
   25.2417  -17.1200  -16.9106 N   0  0  0  0  0  0  0  0  0  0  0  0
   25.3794  -16.6087  -15.5513 C   0  0  1  0  0  0  0  0  0  0  0  0
   26.5278  -15.5929  -15.4872 C   0  0  0  0  0  0  0  0  0  0  0  0
   27.7228  -16.2914  -16.0172 C   0  0  0  0  0  0  0  0  0  0  0  0
   28.3297  -15.8953  -17.1891 C   0  0  0  0  0  0  0  0  0  0  0  0
   29.4512  -16.5507  -17.6867 C   0  0  0  0  0  0  0  0  0  0  0  0
   29.9953  -17.6248  -17.0191 C   0  0  0  0  0  0  0  0  0  0  0  0
   29.3919  -18.0248  -15.8465 C   0  0  0  0  0  0  0  0  0  0  0  0
   28.2652  -17.3646  -15.3487 C   0  0  0  0  0  0  0  0  0  0  0  0
   24.1073  -16.0052  -15.0746 C   0  0  0  0  0  0  0  0  0  0  0  0
   24.1188  -15.4347  -13.9648 O   0  0  0  0  0  0  0  0  0  0  0  0
   20.2054  -12.4517  -17.8142 N   0  0  0  0  0  0  0  0  0  0  0  0
   19.4276  -12.7603  -16.6723 C   0  0  0  0  0  0  0  0  0  0  0  0
   18.3883  -12.1000  -16.4560 O   0  0  0  0  0  0  0  0  0  0  0  0
   19.8363  -13.8430  -15.7528 C   0  0  0  0  0  0  0  0  0  0  0  0
   21.1406  -14.3988  -16.2011 C   0  0  0  0  0  0  0  0  0  0  0  0
   21.6438  -15.5370  -15.3506 C   0  0  2  0  0  0  0  0  0  0  0  0
   22.9062  -16.0598  -15.8322 N   0  0  0  0  0  0  0  0  0  0  0  0
   20.6558  -16.6067  -15.1729 C   0  0  0  0  0  0  0  0  0  0  0  0
   20.3888  -17.3914  -16.1175 O   0  0  0  0  0  0  0  0  0  0  0  0
   19.9642  -16.8064  -13.9483 N   0  0  0  0  0  0  0  0  0  0  0  0
   19.0527  -17.9083  -13.7303 C   0  0  1  0  0  0  0  0  0  0  0  0
   18.5632  -17.8232  -12.2794 C   0  0  0  0  0  0  0  0  0  0  0  0
   17.6271  -18.9016  -11.9468 C   0  0  0  0  0  0  0  0  0  0  0  0
   17.9447  -20.2219  -11.7465 C   0  0  0  0  0  0  0  0  0  0  0  0
   16.7924  -20.8595  -11.4652 N   0  0  0  0  0  0  0  0  0  0  0  0
   15.7875  -19.9651  -11.4893 C   0  0  0  0  0  0  0  0  0  0  0  0
   16.2910  -18.7549  -11.7852 N   0  0  0  0  0  0  0  0  0  0  0  0
   17.9237  -17.8421  -14.6754 C   0  0  0  0  0  0  0  0  0  0  0  0
   17.5170  -18.8634  -15.2870 O   0  0  0  0  0  0  0  0  0  0  0  0
   17.2952  -16.6282  -14.8959 O   0  0  0  0  0  0  0  0  0  0  0  0
  2  1  1  6
  2 10  1  0
  2  3  1  0
  3  4  1  0
  4  5  2  0
  5  6  1  0
  7  6  2  0
  8  7  1  0
  9  4  1  0
  9  8  2  0
 10 18  1  0
 11 10  2  0
 13 15  1  0
 13 12  1  0
 14 13  2  0
 16 15  1  0
 17 16  1  6
 18 17  1  0
 19 20  2  0
 19 17  1  0
 21 19  1  0
 22 29  1  0
 22 21  1  0
 22 23  1  1
 24 23  1  0
 25 24  2  0
 26 27  1  0
 26 25  1  0
 27 28  2  0
 28 24  1  0
 29 31  1  0
 30 29  2  0
M  END
$$$$
