FQH.pdb
     RDKit          3D

 31 32  0  0  1  0  0  0  0  0999 V2000
   17.4124  -10.6928  -16.5126 N   0  0  0  0  0  0  0  0  0  0  0  0
   18.1789   -9.6743  -17.2218 C   0  0  1  0  0  0  0  0  0  0  0  0
   17.2310   -8.6242  -17.8163 C   0  0  0  0  0  0  0  0  0  0  0  0
   16.5438   -9.2873  -18.9498 C   0  0  0  0  0  0  0  0  0  0  0  0
   15.2888   -9.8386  -18.8102 C   0  0  0  0  0  0  0  0  0  0  0  0
   14.6437  -10.4610  -19.8739 C   0  0  0  0  0  0  0  0  0  0  0  0
   15.2431  -10.5468  -21.1104 C   0  0  0  0  0  0  0  0  0  0  0  0
   16.4983   -9.9969  -21.2550 C   0  0  0  0  0  0  0  0  0  0  0  0
   17.1443   -9.3722  -20.1848 C   0  0  0  0  0  0  0  0  0  0  0  0
   19.1829   -9.0402  -16.3277 C   0  0  0  0  0  0  0  0  0  0  0  0
   18.7918   -8.6390  -15.2126 O   0  0  0  0  0  0  0  0  0  0  0  0
   25.2063  -10.3883  -15.7591 N   0  0  0  0  0  0  0  0  0  0  0  0
   24.0440  -11.1650  -15.5354 C   0  0  0  0  0  0  0  0  0  0  0  0
   24.1701  -12.3929  -15.3373 O   0  0  0  0  0  0  0  0  0  0  0  0
   22.7064  -10.5362  -15.5359 C   0  0  0  0  0  0  0  0  0  0  0  0
   22.8439   -9.0948  -15.8748 C   0  0  0  0  0  0  0  0  0  0  0  0
   21.5479   -8.3275  -15.8149 C   0  0  2  0  0  0  0  0  0  0  0  0
   20.5450   -8.8826  -16.7010 N   0  0  0  0  0  0  0  0  0  0  0  0
   21.7179   -6.8873  -16.0364 C   0  0  0  0  0  0  0  0  0  0  0  0
   21.9122   -6.4389  -17.1943 O   0  0  0  0  0  0  0  0  0  0  0  0
   21.6724   -5.9447  -14.9748 N   0  0  0  0  0  0  0  0  0  0  0  0
   21.8539   -4.5238  -15.1761 C   0  0  1  0  0  0  0  0  0  0  0  0
   20.7848   -3.7994  -14.3489 C   0  0  0  0  0  0  0  0  0  0  0  0
   19.4719   -3.8200  -15.0014 C   0  0  0  0  0  0  0  0  0  0  0  0
   19.1819   -4.3603  -16.2294 C   0  0  0  0  0  0  0  0  0  0  0  0
   17.8667   -4.1618  -16.4396 N   0  0  0  0  0  0  0  0  0  0  0  0
   17.3522   -3.5179  -15.3761 C   0  0  0  0  0  0  0  0  0  0  0  0
   18.3333   -3.3023  -14.4834 N   0  0  0  0  0  0  0  0  0  0  0  0
   23.2089   -4.1112  -14.7688 C   0  0  0  0  0  0  0  0  0  0  0  0
   23.8605   -4.7534  -13.9054 O   0  0  0  0  0  0  0  0  0  0  0  0
   23.7790   -2.9909  -15.3495 O   0  0  0  0  0  0  0  0  0  0  0  0
  2  1  1  1
  2 10  1  0
  2  3  1  0
  3  4  1  0
  4  5  2  0
  5  6  1  0
  7  6  2  0
  8  7  1  0
  9  4  1  0
  9  8  2  0
 10 18  1  0
 11 10  2  0
 13 15  1  0
 13 12  1  0
 14 13  2  0
 16 15  1  0
 17 16  1  6
 18 17  1  0
 19 20  2  0
 19 17  1  0
 21 19  1  0
 22 29  1  0
 22 21  1  0
 22 23  1  1
 24 23  1  0
 25 24  2  0
 26 27  1  0
 26 25  1  0
 27 28  2  0
 28 24  1  0
 29 31  1  0
 30 29  2  0
M  END
$$$$
