FQH.pdb
     RDKit          3D

 31 32  0  0  1  0  0  0  0  0999 V2000
   26.0712  -18.8157   -7.8178 N   0  0  0  0  0  0  0  0  0  0  0  0
   26.9483  -19.7314   -8.5391 C   0  0  1  0  0  0  0  0  0  0  0  0
   27.1235  -21.0289   -7.7388 C   0  0  0  0  0  0  0  0  0  0  0  0
   27.9927  -20.6865   -6.5881 C   0  0  0  0  0  0  0  0  0  0  0  0
   29.3628  -20.6142   -6.7148 C   0  0  0  0  0  0  0  0  0  0  0  0
   30.1786  -20.2928   -5.6349 C   0  0  0  0  0  0  0  0  0  0  0  0
   29.6391  -20.0345   -4.3948 C   0  0  0  0  0  0  0  0  0  0  0  0
   28.2692  -20.1055   -4.2631 C   0  0  0  0  0  0  0  0  0  0  0  0
   27.4519  -20.4286   -5.3496 C   0  0  0  0  0  0  0  0  0  0  0  0
   26.4249  -20.0126   -9.9017 C   0  0  0  0  0  0  0  0  0  0  0  0
   25.2163  -19.7863  -10.1144 O   0  0  0  0  0  0  0  0  0  0  0  0
   29.8534  -22.0201  -14.7399 N   0  0  0  0  0  0  0  0  0  0  0  0
   28.7859  -21.3894  -15.4233 C   0  0  0  0  0  0  0  0  0  0  0  0
   28.6873  -21.5459  -16.6597 O   0  0  0  0  0  0  0  0  0  0  0  0
   27.8063  -20.5613  -14.6889 C   0  0  0  0  0  0  0  0  0  0  0  0
   28.1153  -20.6121  -13.2353 C   0  0  0  0  0  0  0  0  0  0  0  0
   26.9193  -20.3775  -12.3485 C   0  0  2  0  0  0  0  0  0  0  0  0
   27.2461  -20.5207  -10.9443 N   0  0  0  0  0  0  0  0  0  0  0  0
   25.7592  -21.1981  -12.7130 C   0  0  0  0  0  0  0  0  0  0  0  0
   25.7320  -22.4233  -12.4344 O   0  0  0  0  0  0  0  0  0  0  0  0
   24.6298  -20.6606  -13.3863 N   0  0  0  0  0  0  0  0  0  0  0  0
   23.5011  -21.4670  -13.7962 C   0  0  1  0  0  0  0  0  0  0  0  0
   22.2981  -20.5298  -13.9589 C   0  0  0  0  0  0  0  0  0  0  0  0
   21.6149  -20.2798  -12.6858 C   0  0  0  0  0  0  0  0  0  0  0  0
   21.9441  -20.8172  -11.4664 C   0  0  0  0  0  0  0  0  0  0  0  0
   21.0633  -20.3244  -10.5749 N   0  0  0  0  0  0  0  0  0  0  0  0
   20.2113  -19.5053  -11.2179 C   0  0  0  0  0  0  0  0  0  0  0  0
   20.5424  -19.4706  -12.5198 N   0  0  0  0  0  0  0  0  0  0  0  0
   23.7977  -22.1722  -15.0559 C   0  0  0  0  0  0  0  0  0  0  0  0
   24.6971  -21.7709  -15.8385 O   0  0  0  0  0  0  0  0  0  0  0  0
   23.0701  -23.3030  -15.3867 O   0  0  0  0  0  0  0  0  0  0  0  0
  2  1  1  1
  2 10  1  0
  2  3  1  0
  3  4  1  0
  4  5  2  0
  5  6  1  0
  7  6  2  0
  8  7  1  0
  9  4  1  0
  9  8  2  0
 10 18  1  0
 11 10  2  0
 13 15  1  0
 13 12  1  0
 14 13  2  0
 16 15  1  0
 17 16  1  6
 18 17  1  0
 19 20  2  0
 19 17  1  0
 21 19  1  0
 22 29  1  0
 22 21  1  0
 22 23  1  6
 24 23  1  0
 25 24  2  0
 26 27  1  0
 26 25  1  0
 27 28  2  0
 28 24  1  0
 29 31  1  0
 30 29  2  0
M  END
$$$$
