FQH.pdb
     RDKit          3D

 31 32  0  0  1  0  0  0  0  0999 V2000
   21.1712  -14.6717  -16.6019 N   0  0  0  0  0  0  0  0  0  0  0  0
   20.9204  -13.4781  -17.4022 C   0  0  1  0  0  0  0  0  0  0  0  0
   19.4332  -13.3979  -17.7719 C   0  0  0  0  0  0  0  0  0  0  0  0
   19.1562  -14.5843  -18.6160 C   0  0  0  0  0  0  0  0  0  0  0  0
   19.6081  -14.6673  -19.9150 C   0  0  0  0  0  0  0  0  0  0  0  0
   19.3481  -15.7808  -20.7073 C   0  0  0  0  0  0  0  0  0  0  0  0
   18.6253  -16.8441  -20.2153 C   0  0  0  0  0  0  0  0  0  0  0  0
   18.1712  -16.7658  -18.9165 C   0  0  0  0  0  0  0  0  0  0  0  0
   18.4337  -15.6461  -18.1226 C   0  0  0  0  0  0  0  0  0  0  0  0
   21.3581  -12.2513  -16.6859 C   0  0  0  0  0  0  0  0  0  0  0  0
   21.0620  -12.1511  -15.4778 O   0  0  0  0  0  0  0  0  0  0  0  0
   24.4593   -9.3531  -14.2251 N   0  0  0  0  0  0  0  0  0  0  0  0
   25.1217  -10.4042  -14.9039 C   0  0  0  0  0  0  0  0  0  0  0  0
   25.9524  -11.0962  -14.2762 O   0  0  0  0  0  0  0  0  0  0  0  0
   24.8365  -10.6787  -16.3279 C   0  0  0  0  0  0  0  0  0  0  0  0
   23.9077   -9.6410  -16.8494 C   0  0  0  0  0  0  0  0  0  0  0  0
   22.4503   -9.9774  -16.6635 C   0  0  2  0  0  0  0  0  0  0  0  0
   22.0880  -11.2137  -17.3263 N   0  0  0  0  0  0  0  0  0  0  0  0
   21.5510   -8.8833  -17.0458 C   0  0  0  0  0  0  0  0  0  0  0  0
   20.9699   -8.8953  -18.1600 O   0  0  0  0  0  0  0  0  0  0  0  0
   21.2960   -7.7762  -16.1930 N   0  0  0  0  0  0  0  0  0  0  0  0
   20.3266   -6.7492  -16.5059 C   0  0  1  0  0  0  0  0  0  0  0  0
   18.9604   -7.4311  -16.6485 C   0  0  0  0  0  0  0  0  0  0  0  0
   17.8807   -6.4655  -16.8759 C   0  0  0  0  0  0  0  0  0  0  0  0
   17.2955   -5.6613  -15.9297 C   0  0  0  0  0  0  0  0  0  0  0  0
   16.3558   -4.9357  -16.5650 N   0  0  0  0  0  0  0  0  0  0  0  0
   16.3546   -5.2764  -17.8667 C   0  0  0  0  0  0  0  0  0  0  0  0
   17.2909   -6.2188  -18.0692 N   0  0  0  0  0  0  0  0  0  0  0  0
   20.2989   -5.7227  -15.4486 C   0  0  0  0  0  0  0  0  0  0  0  0
   20.6093   -5.9939  -14.2601 O   0  0  0  0  0  0  0  0  0  0  0  0
   19.9226   -4.4295  -15.7699 O   0  0  0  0  0  0  0  0  0  0  0  0
  2  1  1  1
  2 10  1  0
  2  3  1  0
  3  4  1  0
  4  5  2  0
  5  6  1  0
  7  6  2  0
  8  7  1  0
  9  4  1  0
  9  8  2  0
 10 18  1  0
 11 10  2  0
 13 15  1  0
 13 12  1  0
 14 13  2  0
 16 15  1  0
 17 16  1  6
 18 17  1  0
 19 20  2  0
 19 17  1  0
 21 19  1  0
 22 29  1  0
 22 21  1  0
 22 23  1  1
 24 23  1  0
 25 24  2  0
 26 27  1  0
 26 25  1  0
 27 28  2  0
 28 24  1  0
 29 31  1  0
 30 29  2  0
M  END
$$$$
