FQH.pdb
     RDKit          3D

 31 32  0  0  1  0  0  0  0  0999 V2000
   23.7994   -9.6843  -17.9201 N   0  0  0  0  0  0  0  0  0  0  0  0
   23.3133   -8.9954  -16.7297 C   0  0  1  0  0  0  0  0  0  0  0  0
   24.3826   -8.0235  -16.2131 C   0  0  0  0  0  0  0  0  0  0  0  0
   25.5544   -8.8568  -15.8535 C   0  0  0  0  0  0  0  0  0  0  0  0
   25.5251   -9.7176  -14.7780 C   0  0  0  0  0  0  0  0  0  0  0  0
   26.6248  -10.4997  -14.4404 C   0  0  0  0  0  0  0  0  0  0  0  0
   27.7871  -10.4384  -15.1756 C   0  0  0  0  0  0  0  0  0  0  0  0
   27.8213   -9.5789  -16.2522 C   0  0  0  0  0  0  0  0  0  0  0  0
   26.7152   -8.7943  -16.5894 C   0  0  0  0  0  0  0  0  0  0  0  0
   22.0368   -8.2854  -17.0055 C   0  0  0  0  0  0  0  0  0  0  0  0
   21.8890   -7.7816  -18.1376 O   0  0  0  0  0  0  0  0  0  0  0  0
   17.0949  -10.2111  -14.4596 N   0  0  0  0  0  0  0  0  0  0  0  0
   17.6779  -10.6651  -15.6672 C   0  0  0  0  0  0  0  0  0  0  0  0
   17.4947  -11.8520  -16.0145 O   0  0  0  0  0  0  0  0  0  0  0  0
   18.4881   -9.7532  -16.5018 C   0  0  0  0  0  0  0  0  0  0  0  0
   18.5744   -8.4269  -15.8348 C   0  0  0  0  0  0  0  0  0  0  0  0
   19.7155   -7.5715  -16.3226 C   0  0  2  0  0  0  0  0  0  0  0  0
   21.0044   -8.1681  -16.0361 N   0  0  0  0  0  0  0  0  0  0  0  0
   19.6485   -6.1879  -15.8399 C   0  0  0  0  0  0  0  0  0  0  0  0
   20.1234   -5.8804  -14.7177 O   0  0  0  0  0  0  0  0  0  0  0  0
   19.0551   -5.1456  -16.6010 N   0  0  0  0  0  0  0  0  0  0  0  0
   18.8786   -3.8029  -16.0926 C   0  0  1  0  0  0  0  0  0  0  0  0
   18.5308   -2.9001  -17.2826 C   0  0  0  0  0  0  0  0  0  0  0  0
   18.3380   -1.5034  -16.8802 C   0  0  0  0  0  0  0  0  0  0  0  0
   19.3268   -0.5854  -16.6278 C   0  0  0  0  0  0  0  0  0  0  0  0
   18.7117    0.5644  -16.2915 N   0  0  0  0  0  0  0  0  0  0  0  0
   17.3810    0.3699  -16.3328 C   0  0  0  0  0  0  0  0  0  0  0  0
   17.1396   -0.9016  -16.6946 N   0  0  0  0  0  0  0  0  0  0  0  0
   17.8145   -3.7698  -15.0734 C   0  0  0  0  0  0  0  0  0  0  0  0
   16.8089   -4.5219  -15.1476 O   0  0  0  0  0  0  0  0  0  0  0  0
   17.9233   -2.8909  -14.0090 O   0  0  0  0  0  0  0  0  0  0  0  0
  2  1  1  6
  2 10  1  0
  2  3  1  0
  3  4  1  0
  4  5  2  0
  5  6  1  0
  7  6  2  0
  8  7  1  0
  9  4  1  0
  9  8  2  0
 10 18  1  0
 11 10  2  0
 13 15  1  0
 13 12  1  0
 14 13  2  0
 16 15  1  0
 17 16  1  1
 18 17  1  0
 19 20  2  0
 19 17  1  0
 21 19  1  0
 22 29  1  0
 22 21  1  0
 22 23  1  6
 24 23  1  0
 25 24  2  0
 26 27  1  0
 26 25  1  0
 27 28  2  0
 28 24  1  0
 29 31  1  0
 30 29  2  0
M  END
$$$$
