FQH.pdb
     RDKit          3D

 31 32  0  0  1  0  0  0  0  0999 V2000
   25.4046  -11.4466  -18.1696 N   0  0  0  0  0  0  0  0  0  0  0  0
   24.9772  -10.8989  -16.8869 C   0  0  1  0  0  0  0  0  0  0  0  0
   26.1370  -10.1396  -16.2287 C   0  0  0  0  0  0  0  0  0  0  0  0
   27.1968  -11.1455  -15.9802 C   0  0  0  0  0  0  0  0  0  0  0  0
   27.0666  -12.1038  -14.9989 C   0  0  0  0  0  0  0  0  0  0  0  0
   28.0612  -13.0479  -14.7656 C   0  0  0  0  0  0  0  0  0  0  0  0
   29.2170  -13.0552  -15.5136 C   0  0  0  0  0  0  0  0  0  0  0  0
   29.3520  -12.0987  -16.4963 C   0  0  0  0  0  0  0  0  0  0  0  0
   28.3512  -11.1513  -16.7287 C   0  0  0  0  0  0  0  0  0  0  0  0
   23.7891  -10.0204  -17.0488 C   0  0  0  0  0  0  0  0  0  0  0  0
   23.6686   -9.4048  -18.1276 O   0  0  0  0  0  0  0  0  0  0  0  0
   18.2111  -10.7874  -14.4153 N   0  0  0  0  0  0  0  0  0  0  0  0
   18.7584  -11.4770  -15.5240 C   0  0  0  0  0  0  0  0  0  0  0  0
   18.2440  -12.5624  -15.8708 O   0  0  0  0  0  0  0  0  0  0  0  0
   19.9162  -10.9243  -16.2579 C   0  0  0  0  0  0  0  0  0  0  0  0
   20.4100   -9.7128  -15.5512 C   0  0  0  0  0  0  0  0  0  0  0  0
   21.6098   -9.0732  -16.2018 C   0  0  2  0  0  0  0  0  0  0  0  0
   22.8097   -9.8668  -16.0306 N   0  0  0  0  0  0  0  0  0  0  0  0
   21.8239   -7.6842  -15.7812 C   0  0  0  0  0  0  0  0  0  0  0  0
   22.4119   -7.4287  -14.7003 O   0  0  0  0  0  0  0  0  0  0  0  0
   21.3861   -6.5788  -16.5586 N   0  0  0  0  0  0  0  0  0  0  0  0
   21.6283   -5.2045  -16.1781 C   0  0  1  0  0  0  0  0  0  0  0  0
   21.1777   -4.3158  -17.3440 C   0  0  0  0  0  0  0  0  0  0  0  0
   21.5016   -2.9033  -17.1209 C   0  0  0  0  0  0  0  0  0  0  0  0
   21.0618   -2.1220  -16.0815 C   0  0  0  0  0  0  0  0  0  0  0  0
   21.5954   -0.8990  -16.2629 N   0  0  0  0  0  0  0  0  0  0  0  0
   22.3446   -0.9167  -17.3804 C   0  0  0  0  0  0  0  0  0  0  0  0
   22.2937   -2.1476  -17.9172 N   0  0  0  0  0  0  0  0  0  0  0  0
   20.8954   -4.8712  -14.9437 C   0  0  0  0  0  0  0  0  0  0  0  0
   21.3952   -4.1250  -14.0629 O   0  0  0  0  0  0  0  0  0  0  0  0
   19.6270   -5.3910  -14.7477 O   0  0  0  0  0  0  0  0  0  0  0  0
  2  1  1  6
  2 10  1  0
  2  3  1  0
  3  4  1  0
  4  5  2  0
  5  6  1  0
  7  6  2  0
  8  7  1  0
  9  4  1  0
  9  8  2  0
 10 18  1  0
 11 10  2  0
 13 15  1  0
 13 12  1  0
 14 13  2  0
 16 15  1  0
 17 16  1  1
 18 17  1  0
 19 20  2  0
 19 17  1  0
 21 19  1  0
 22 29  1  0
 22 21  1  0
 22 23  1  6
 24 23  1  0
 25 24  2  0
 26 27  1  0
 26 25  1  0
 27 28  2  0
 28 24  1  0
 29 31  1  0
 30 29  2  0
M  END
$$$$
