SAC.pdb
     RDKit          3D

 18 17  0  0  1  0  0  0  0  0999 V2000
   15.2473   -9.1443  -13.5737 O   0  0  0  0  0  0  0  0  0  0  0  0
   16.4728   -8.4986  -13.4445 C   0  0  0  0  0  0  0  0  0  0  0  0
   17.4593   -9.3269  -12.6390 C   0  0  2  0  0  0  0  0  0  0  0  0
   17.0600   -9.3218  -11.2557 N   0  0  0  0  0  0  0  0  0  0  0  0
   18.7944   -8.6913  -12.8261 C   0  0  0  0  0  0  0  0  0  0  0  0
   19.0758   -7.7159  -12.0813 O   0  0  0  0  0  0  0  0  0  0  0  0
   21.9541   -9.2680  -14.7720 C   0  0  0  0  0  0  0  0  0  0  0  0
   20.9578   -8.4418  -13.9849 C   0  0  2  0  0  0  0  0  0  0  0  0
   19.7248   -9.1443  -13.7916 N   0  0  0  0  0  0  0  0  0  0  0  0
   20.7518   -7.1035  -14.6120 C   0  0  0  0  0  0  0  0  0  0  0  0
   19.8713   -6.9797  -15.4785 O   0  0  0  0  0  0  0  0  0  0  0  0
   21.5514   -6.0001  -14.2191 N   0  0  0  0  0  0  0  0  0  0  0  0
   21.4495   -4.6976  -14.8829 C   0  0  1  0  0  0  0  0  0  0  0  0
   21.2813   -3.6385  -13.8125 C   0  0  0  0  0  0  0  0  0  0  0  0
   19.6904   -3.7978  -12.9696 S   0  0  0  0  0  0  0  0  0  0  0  0
   22.6356   -4.4270  -15.7105 C   0  0  0  0  0  0  0  0  0  0  0  0
   23.6175   -5.2013  -15.5925 O   0  0  0  0  0  0  0  0  0  0  0  0
   22.7372   -3.3743  -16.6098 O   0  0  0  0  0  0  0  0  0  0  0  0
  2  1  1  0
  3  4  1  1
  3  2  1  0
  5  3  1  0
  6  5  2  0
  8  7  1  6
  8  9  1  0
  9  5  1  0
 10 12  1  0
 10  8  1  0
 11 10  2  0
 13 16  1  0
 13 14  1  1
 13 12  1  0
 14 15  1  0
 16 18  1  0
 17 16  2  0
M  END
$$$$
