SAC.pdb
     RDKit          3D

 18 17  0  0  1  0  0  0  0  0999 V2000
   15.8264  -14.2795  -13.6142 O   0  0  0  0  0  0  0  0  0  0  0  0
   16.8465  -13.4553  -14.0785 C   0  0  0  0  0  0  0  0  0  0  0  0
   16.9858  -13.5343  -15.5893 C   0  0  2  0  0  0  0  0  0  0  0  0
   17.4910  -14.8339  -15.9486 N   0  0  0  0  0  0  0  0  0  0  0  0
   17.9310  -12.4512  -15.9824 C   0  0  0  0  0  0  0  0  0  0  0  0
   19.1590  -12.7290  -15.9736 O   0  0  0  0  0  0  0  0  0  0  0  0
   17.7680   -9.0093  -17.4756 C   0  0  0  0  0  0  0  0  0  0  0  0
   18.4441  -10.1752  -16.7838 C   0  0  2  0  0  0  0  0  0  0  0  0
   17.4943  -11.1573  -16.3541 N   0  0  0  0  0  0  0  0  0  0  0  0
   19.3163   -9.7078  -15.6669 C   0  0  0  0  0  0  0  0  0  0  0  0
   18.8471   -9.6727  -14.5180 O   0  0  0  0  0  0  0  0  0  0  0  0
   20.6542   -9.3133  -15.9228 N   0  0  0  0  0  0  0  0  0  0  0  0
   21.5095   -8.7564  -14.8712 C   0  0  1  0  0  0  0  0  0  0  0  0
   22.9121   -9.2915  -15.0762 C   0  0  0  0  0  0  0  0  0  0  0  0
   23.0285  -11.0346  -14.6126 S   0  0  0  0  0  0  0  0  0  0  0  0
   21.4973   -7.2853  -14.8978 C   0  0  0  0  0  0  0  0  0  0  0  0
   21.2893   -6.7240  -16.0020 O   0  0  0  0  0  0  0  0  0  0  0  0
   21.7004   -6.4820  -13.7838 O   0  0  0  0  0  0  0  0  0  0  0  0
  2  1  1  0
  3  4  1  1
  3  2  1  0
  5  3  1  0
  6  5  2  0
  8  7  1  1
  8  9  1  0
  9  5  1  0
 10 12  1  0
 10  8  1  0
 11 10  2  0
 13 16  1  0
 13 14  1  6
 13 12  1  0
 14 15  1  0
 16 18  1  0
 17 16  2  0
M  END
$$$$
