SAC.pdb
     RDKit          3D

 18 17  0  0  1  0  0  0  0  0999 V2000
   17.6937  -25.6923  -10.7965 O   0  0  0  0  0  0  0  0  0  0  0  0
   17.8530  -25.7327   -9.4150 C   0  0  0  0  0  0  0  0  0  0  0  0
   18.0309  -24.3414   -8.8314 C   0  0  2  0  0  0  0  0  0  0  0  0
   19.3715  -23.8873   -9.0955 N   0  0  0  0  0  0  0  0  0  0  0  0
   17.7714  -24.4617   -7.3688 C   0  0  0  0  0  0  0  0  0  0  0  0
   18.7727  -24.5915   -6.6164 O   0  0  0  0  0  0  0  0  0  0  0  0
   14.8870  -24.1558   -4.9851 C   0  0  0  0  0  0  0  0  0  0  0  0
   16.2761  -24.5850   -5.4107 C   0  0  2  0  0  0  0  0  0  0  0  0
   16.4662  -24.4343   -6.8222 N   0  0  0  0  0  0  0  0  0  0  0  0
   16.5790  -25.9702   -4.9457 C   0  0  0  0  0  0  0  0  0  0  0  0
   16.4619  -26.9086   -5.7502 O   0  0  0  0  0  0  0  0  0  0  0  0
   16.9919  -26.2004   -3.6087 N   0  0  0  0  0  0  0  0  0  0  0  0
   17.2264  -27.5526   -3.0949 C   0  0  1  0  0  0  0  0  0  0  0  0
   18.1626  -27.4469   -1.9085 C   0  0  0  0  0  0  0  0  0  0  0  0
   19.7631  -26.7580   -2.3890 S   0  0  0  0  0  0  0  0  0  0  0  0
   15.9635  -28.2043   -2.7136 C   0  0  0  0  0  0  0  0  0  0  0  0
   14.9691  -27.4675   -2.4990 O   0  0  0  0  0  0  0  0  0  0  0  0
   15.8025  -29.5764   -2.5768 O   0  0  0  0  0  0  0  0  0  0  0  0
  2  1  1  0
  3  4  1  1
  3  2  1  0
  5  3  1  0
  6  5  2  0
  8  7  1  6
  8  9  1  0
  9  5  1  0
 10 12  1  0
 10  8  1  0
 11 10  2  0
 13 16  1  0
 13 14  1  1
 13 12  1  0
 14 15  1  0
 16 18  1  0
 17 16  2  0
M  END
$$$$
