SAC.pdb
     RDKit          3D

 18 17  0  0  1  0  0  0  0  0999 V2000
   14.9725  -12.4932  -10.3093 O   0  0  0  0  0  0  0  0  0  0  0  0
   15.3142  -11.2511  -10.8345 C   0  0  0  0  0  0  0  0  0  0  0  0
   14.5285  -10.1299  -10.1760 C   0  0  2  0  0  0  0  0  0  0  0  0
   13.1812  -10.1369  -10.6840 N   0  0  0  0  0  0  0  0  0  0  0  0
   15.2359   -8.8631  -10.5170 C   0  0  0  0  0  0  0  0  0  0  0  0
   15.1646   -8.4686  -11.7105 O   0  0  0  0  0  0  0  0  0  0  0  0
   16.6818   -5.8937   -8.8589 C   0  0  0  0  0  0  0  0  0  0  0  0
   16.6710   -6.9362   -9.9581 C   0  0  2  0  0  0  0  0  0  0  0  0
   15.9635   -8.1161   -9.5602 N   0  0  0  0  0  0  0  0  0  0  0  0
   18.0547   -7.2397  -10.4273 C   0  0  0  0  0  0  0  0  0  0  0  0
   18.6177   -8.2619  -10.0034 O   0  0  0  0  0  0  0  0  0  0  0  0
   18.7058   -6.3713  -11.3399 N   0  0  0  0  0  0  0  0  0  0  0  0
   20.0157   -6.6941  -11.9124 C   0  0  1  0  0  0  0  0  0  0  0  0
   19.8562   -7.9247  -12.7817 C   0  0  0  0  0  0  0  0  0  0  0  0
   21.3928   -8.3283  -13.6438 S   0  0  0  0  0  0  0  0  0  0  0  0
   20.5505   -5.5650  -12.6897 C   0  0  0  0  0  0  0  0  0  0  0  0
   19.7488   -4.9248  -13.4144 O   0  0  0  0  0  0  0  0  0  0  0  0
   21.8796   -5.1646  -12.6725 O   0  0  0  0  0  0  0  0  0  0  0  0
  2  1  1  0
  3  4  1  6
  3  2  1  0
  5  3  1  0
  6  5  2  0
  8  7  1  1
  8  9  1  0
  9  5  1  0
 10 12  1  0
 10  8  1  0
 11 10  2  0
 13 16  1  0
 13 14  1  6
 13 12  1  0
 14 15  1  0
 16 18  1  0
 17 16  2  0
M  END
$$$$
