SAC.pdb
     RDKit          3D

 18 17  0  0  1  0  0  0  0  0999 V2000
   20.7561  -13.5402  -15.6005 O   0  0  0  0  0  0  0  0  0  0  0  0
   20.5899  -12.2028  -15.9456 C   0  0  0  0  0  0  0  0  0  0  0  0
   19.2159  -11.9450  -16.5405 C   0  0  2  0  0  0  0  0  0  0  0  0
   19.1779  -12.4664  -17.8821 N   0  0  0  0  0  0  0  0  0  0  0  0
   19.0188  -10.4679  -16.5211 C   0  0  0  0  0  0  0  0  0  0  0  0
   19.6156   -9.7969  -17.4036 O   0  0  0  0  0  0  0  0  0  0  0  0
   16.6791   -7.9619  -15.1493 C   0  0  0  0  0  0  0  0  0  0  0  0
   18.0645   -8.3959  -15.5822 C   0  0  2  0  0  0  0  0  0  0  0  0
   18.2015   -9.8214  -15.5634 N   0  0  0  0  0  0  0  0  0  0  0  0
   19.1195   -7.7174  -14.7739 C   0  0  0  0  0  0  0  0  0  0  0  0
   19.7968   -8.3969  -13.9858 O   0  0  0  0  0  0  0  0  0  0  0  0
   19.3369   -6.3227  -14.9101 N   0  0  0  0  0  0  0  0  0  0  0  0
   20.4188   -5.6367  -14.1983 C   0  0  1  0  0  0  0  0  0  0  0  0
   21.7364   -6.1610  -14.7316 C   0  0  0  0  0  0  0  0  0  0  0  0
   23.1336   -5.2087  -14.0929 S   0  0  0  0  0  0  0  0  0  0  0  0
   20.3254   -4.1777  -14.3653 C   0  0  0  0  0  0  0  0  0  0  0  0
   19.9730   -3.7412  -15.4891 O   0  0  0  0  0  0  0  0  0  0  0  0
   20.6011   -3.2574  -13.3632 O   0  0  0  0  0  0  0  0  0  0  0  0
  2  1  1  0
  3  4  1  6
  3  2  1  0
  5  3  1  0
  6  5  2  0
  8  7  1  1
  8  9  1  0
  9  5  1  0
 10 12  1  0
 10  8  1  0
 11 10  2  0
 13 16  1  0
 13 14  1  6
 13 12  1  0
 14 15  1  0
 16 18  1  0
 17 16  2  0
M  END
$$$$
