SAC.pdb
     RDKit          3D

 18 17  0  0  1  0  0  0  0  0999 V2000
   16.6489  -10.7823  -17.6197 O   0  0  0  0  0  0  0  0  0  0  0  0
   17.7083   -9.9534  -17.2648 C   0  0  0  0  0  0  0  0  0  0  0  0
   18.7541   -9.8802  -18.3644 C   0  0  2  0  0  0  0  0  0  0  0  0
   19.5112  -11.1049  -18.3771 N   0  0  0  0  0  0  0  0  0  0  0  0
   19.6164   -8.7064  -18.0483 C   0  0  0  0  0  0  0  0  0  0  0  0
   20.5325   -8.8778  -17.2018 O   0  0  0  0  0  0  0  0  0  0  0  0
   20.2814   -5.3118  -19.4900 C   0  0  0  0  0  0  0  0  0  0  0  0
   20.3871   -6.3955  -18.4367 C   0  0  2  0  0  0  0  0  0  0  0  0
   19.4352   -7.4423  -18.6585 N   0  0  0  0  0  0  0  0  0  0  0  0
   20.2862   -5.8235  -17.0622 C   0  0  0  0  0  0  0  0  0  0  0  0
   19.1596   -5.6292  -16.5780 O   0  0  0  0  0  0  0  0  0  0  0  0
   21.4603   -5.5111  -16.3307 N   0  0  0  0  0  0  0  0  0  0  0  0
   21.4023   -4.8677  -15.0153 C   0  0  1  0  0  0  0  0  0  0  0  0
   22.6095   -5.3199  -14.2193 C   0  0  0  0  0  0  0  0  0  0  0  0
   22.4885   -7.0664  -13.7702 S   0  0  0  0  0  0  0  0  0  0  0  0
   21.3716   -3.4019  -15.1400 C   0  0  0  0  0  0  0  0  0  0  0  0
   21.2026   -2.7313  -14.0915 O   0  0  0  0  0  0  0  0  0  0  0  0
   21.5172   -2.7165  -16.3384 O   0  0  0  0  0  0  0  0  0  0  0  0
  2  1  1  0
  3  4  1  1
  3  2  1  0
  5  3  1  0
  6  5  2  0
  8  7  1  6
  8  9  1  0
  9  5  1  0
 10 12  1  0
 10  8  1  0
 11 10  2  0
 13 16  1  0
 13 14  1  1
 13 12  1  0
 14 15  1  0
 16 18  1  0
 17 16  2  0
M  END
$$$$
