SAC.pdb
     RDKit          3D

 18 17  0  0  1  0  0  0  0  0999 V2000
   23.5615  -35.7157  -10.0785 O   0  0  0  0  0  0  0  0  0  0  0  0
   24.0249  -34.9377  -11.1347 C   0  0  0  0  0  0  0  0  0  0  0  0
   25.5422  -34.8625  -11.1505 C   0  0  2  0  0  0  0  0  0  0  0  0
   26.0764  -36.1740  -11.4109 N   0  0  0  0  0  0  0  0  0  0  0  0
   25.9531  -34.3602   -9.8088 C   0  0  0  0  0  0  0  0  0  0  0  0
   26.6768  -35.1164   -9.1091 O   0  0  0  0  0  0  0  0  0  0  0  0
   25.5206  -31.2546   -7.7150 C   0  0  0  0  0  0  0  0  0  0  0  0
   25.9686  -32.6713   -8.0109 C   0  0  2  0  0  0  0  0  0  0  0  0
   25.5609  -33.0920   -9.3177 N   0  0  0  0  0  0  0  0  0  0  0  0
   25.5137  -33.6141   -6.9475 C   0  0  0  0  0  0  0  0  0  0  0  0
   24.5363  -34.3448   -7.1761 O   0  0  0  0  0  0  0  0  0  0  0  0
   26.1912  -33.6673   -5.7028 N   0  0  0  0  0  0  0  0  0  0  0  0
   26.0507  -34.8095   -4.7954 C   0  0  1  0  0  0  0  0  0  0  0  0
   26.6307  -36.0283   -5.4836 C   0  0  0  0  0  0  0  0  0  0  0  0
   25.5247  -37.4516   -5.3497 S   0  0  0  0  0  0  0  0  0  0  0  0
   26.7257  -34.5571   -3.5126 C   0  0  0  0  0  0  0  0  0  0  0  0
   27.6979  -33.7617   -3.5121 O   0  0  0  0  0  0  0  0  0  0  0  0
   26.3573  -35.1403   -2.3078 O   0  0  0  0  0  0  0  0  0  0  0  0
  2  1  1  0
  3  4  1  1
  3  2  1  0
  5  3  1  0
  6  5  2  0
  8  7  1  1
  8  9  1  0
  9  5  1  0
 10 12  1  0
 10  8  1  0
 11 10  2  0
 13 16  1  0
 13 14  1  6
 13 12  1  0
 14 15  1  0
 16 18  1  0
 17 16  2  0
M  END
$$$$
