WSQ.pdb
     RDKit          3D

 30 31  0  0  1  0  0  0  0  0999 V2000
   24.4856  -19.5156  -11.3347 N   0  0  0  0  0  0  0  0  0  0  0  0
   25.7759  -20.0608  -11.5826 C   0  0  1  0  0  0  0  0  0  0  0  0
   26.1801  -21.2003  -10.6980 C   0  0  0  0  0  0  0  0  0  0  0  0
   26.2643  -20.7666   -9.2806 C   0  0  0  0  0  0  0  0  0  0  0  0
   25.1601  -20.4749   -8.4803 C   0  0  0  0  0  0  0  0  0  0  0  0
   25.5441  -20.0904   -7.2568 N   0  0  0  0  0  0  0  0  0  0  0  0
   26.8930  -20.1280   -7.2483 C   0  0  0  0  0  0  0  0  0  0  0  0
   27.8102  -19.8370   -6.2518 C   0  0  0  0  0  0  0  0  0  0  0  0
   29.1581  -19.9629   -6.5009 C   0  0  0  0  0  0  0  0  0  0  0  0
   29.6320  -20.3701   -7.7117 C   0  0  0  0  0  0  0  0  0  0  0  0
   28.7190  -20.6676   -8.7288 C   0  0  0  0  0  0  0  0  0  0  0  0
   27.3697  -20.5415   -8.4813 C   0  0  0  0  0  0  0  0  0  0  0  0
   25.9819  -20.4868  -12.9833 C   0  0  0  0  0  0  0  0  0  0  0  0
   24.9981  -21.0313  -13.5625 O   0  0  0  0  0  0  0  0  0  0  0  0
   29.5615  -20.3785  -15.3786 O   0  0  0  0  0  0  0  0  0  0  0  0
   28.3987  -19.6870  -15.7175 C   0  0  0  0  0  0  0  0  0  0  0  0
   27.1864  -20.4191  -15.1517 C   0  0  2  0  0  0  0  0  0  0  0  0
   27.1633  -20.3427  -13.7249 N   0  0  0  0  0  0  0  0  0  0  0  0
   27.2729  -21.8064  -15.6567 C   0  0  0  0  0  0  0  0  0  0  0  0
   27.9322  -22.6452  -14.9903 O   0  0  0  0  0  0  0  0  0  0  0  0
   24.6154  -26.4405  -14.8920 N   0  0  0  0  0  0  0  0  0  0  0  0
   23.7796  -25.5112  -15.5605 C   0  0  0  0  0  0  0  0  0  0  0  0
   22.5401  -25.6390  -15.4701 O   0  0  0  0  0  0  0  0  0  0  0  0
   24.4165  -24.4249  -16.3400 C   0  0  0  0  0  0  0  0  0  0  0  0
   25.9097  -24.4267  -16.0904 C   0  0  0  0  0  0  0  0  0  0  0  0
   26.6418  -23.6674  -17.1966 C   0  0  2  0  0  0  0  0  0  0  0  0
   26.6583  -22.2513  -16.8461 N   0  0  0  0  0  0  0  0  0  0  0  0
   25.9913  -23.9129  -18.4871 C   0  0  0  0  0  0  0  0  0  0  0  0
   25.3134  -22.8712  -19.1036 O   0  0  0  0  0  0  0  0  0  0  0  0
   26.0128  -25.0283  -19.0746 O   0  0  0  0  0  0  0  0  0  0  0  0
  2  1  1  6
  2  3  1  0
  2 13  1  0
  3  4  1  0
  4 12  1  0
  4  5  2  0
  5  6  1  0
  7  6  1  0
  7  8  2  0
  9  8  1  0
 10  9  2  0
 11 12  2  0
 11 10  1  0
 12  7  1  0
 13 14  2  0
 16 15  1  0
 17 16  1  1
 17 19  1  0
 18 13  1  0
 18 17  1  0
 19 27  1  0
 19 20  2  0
 21 22  1  0
 22 23  2  0
 24 22  1  0
 24 25  1  0
 26 25  1  1
 26 28  1  0
 27 26  1  0
 28 30  2  0
 28 29  1  0
M  END
$$$$
