WSQ.pdb
     RDKit          3D

 30 31  0  0  1  0  0  0  0  0999 V2000
   25.8481  -22.9816  -11.9552 N   0  0  0  0  0  0  0  0  0  0  0  0
   25.2886  -21.7371  -11.5532 C   0  0  1  0  0  0  0  0  0  0  0  0
   26.1897  -20.5475  -11.6847 C   0  0  0  0  0  0  0  0  0  0  0  0
   27.3577  -20.6645  -10.7757 C   0  0  0  0  0  0  0  0  0  0  0  0
   28.6477  -20.9940  -11.1908 C   0  0  0  0  0  0  0  0  0  0  0  0
   29.4869  -21.0456  -10.1491 N   0  0  0  0  0  0  0  0  0  0  0  0
   28.7568  -20.7519   -9.0528 C   0  0  0  0  0  0  0  0  0  0  0  0
   29.1098  -20.6581   -7.7166 C   0  0  0  0  0  0  0  0  0  0  0  0
   28.1588  -20.3313   -6.7764 C   0  0  0  0  0  0  0  0  0  0  0  0
   26.8614  -20.0926   -7.1169 C   0  0  0  0  0  0  0  0  0  0  0  0
   26.4886  -20.1835   -8.4620 C   0  0  0  0  0  0  0  0  0  0  0  0
   27.4388  -20.5111   -9.4041 C   0  0  0  0  0  0  0  0  0  0  0  0
   24.0156  -21.4113  -12.2306 C   0  0  0  0  0  0  0  0  0  0  0  0
   23.9024  -21.7791  -13.4355 O   0  0  0  0  0  0  0  0  0  0  0  0
   21.1309  -19.2251  -10.4697 O   0  0  0  0  0  0  0  0  0  0  0  0
   20.5805  -20.1820  -11.3223 C   0  0  0  0  0  0  0  0  0  0  0  0
   21.6476  -20.6726  -12.2951 C   0  0  2  0  0  0  0  0  0  0  0  0
   22.9270  -20.7348  -11.6617 N   0  0  0  0  0  0  0  0  0  0  0  0
   21.6139  -19.7419  -13.4440 C   0  0  0  0  0  0  0  0  0  0  0  0
   22.3576  -18.7278  -13.4137 O   0  0  0  0  0  0  0  0  0  0  0  0
   23.6868  -21.7982  -16.0866 N   0  0  0  0  0  0  0  0  0  0  0  0
   22.6289  -21.4920  -16.9788 C   0  0  0  0  0  0  0  0  0  0  0  0
   21.9566  -22.4273  -17.4630 O   0  0  0  0  0  0  0  0  0  0  0  0
   22.3664  -20.0700  -17.2987 C   0  0  0  0  0  0  0  0  0  0  0  0
   20.9223  -19.7366  -16.9901 C   0  0  0  0  0  0  0  0  0  0  0  0
   20.8170  -18.9610  -15.6773 C   0  0  2  0  0  0  0  0  0  0  0  0
   20.7954  -19.9210  -14.5790 N   0  0  0  0  0  0  0  0  0  0  0  0
   19.6243  -18.1087  -15.6938 C   0  0  0  0  0  0  0  0  0  0  0  0
   19.5766  -17.0418  -16.5793 O   0  0  0  0  0  0  0  0  0  0  0  0
   18.6294  -18.2919  -14.9413 O   0  0  0  0  0  0  0  0  0  0  0  0
  2  1  1  6
  2  3  1  0
  2 13  1  0
  3  4  1  0
  4 12  1  0
  4  5  2  0
  5  6  1  0
  7  6  1  0
  7  8  2  0
  9  8  1  0
 10  9  2  0
 11 12  2  0
 11 10  1  0
 12  7  1  0
 13 14  2  0
 16 15  1  0
 17 16  1  1
 17 19  1  0
 18 13  1  0
 18 17  1  0
 19 27  1  0
 19 20  2  0
 21 22  1  0
 22 23  2  0
 24 22  1  0
 24 25  1  0
 26 25  1  6
 26 28  1  0
 27 26  1  0
 28 30  2  0
 28 29  1  0
M  END
$$$$
