WSQ.pdb
     RDKit          3D

 30 31  0  0  1  0  0  0  0  0999 V2000
   15.2660  -15.1889    6.6115 N   0  0  0  0  0  0  0  0  0  0  0  0
   16.6336  -15.2652    6.9952 C   0  0  1  0  0  0  0  0  0  0  0  0
   17.1694  -14.0740    7.7290 C   0  0  0  0  0  0  0  0  0  0  0  0
   17.9995  -13.2295    6.8335 C   0  0  0  0  0  0  0  0  0  0  0  0
   17.5448  -12.6606    5.6442 C   0  0  0  0  0  0  0  0  0  0  0  0
   18.5200  -11.9703    5.0405 N   0  0  0  0  0  0  0  0  0  0  0  0
   19.6120  -12.0818    5.8255 C   0  0  0  0  0  0  0  0  0  0  0  0
   20.8919  -11.5693    5.6907 C   0  0  0  0  0  0  0  0  0  0  0  0
   21.8409  -11.8301    6.6532 C   0  0  0  0  0  0  0  0  0  0  0  0
   21.5636  -12.5863    7.7521 C   0  0  0  0  0  0  0  0  0  0  0  0
   20.2760  -13.1114    7.9030 C   0  0  0  0  0  0  0  0  0  0  0  0
   19.3252  -12.8520    6.9404 C   0  0  0  0  0  0  0  0  0  0  0  0
   16.9611  -16.4663    7.7926 C   0  0  0  0  0  0  0  0  0  0  0  0
   16.2951  -16.6436    8.8531 O   0  0  0  0  0  0  0  0  0  0  0  0
   18.1468  -20.8277    8.7429 O   0  0  0  0  0  0  0  0  0  0  0  0
   18.0020  -19.8393    7.7695 C   0  0  0  0  0  0  0  0  0  0  0  0
   18.2957  -18.4736    8.3814 C   0  0  2  0  0  0  0  0  0  0  0  0
   17.9383  -17.4228    7.4815 N   0  0  0  0  0  0  0  0  0  0  0  0
   19.7343  -18.4791    8.7245 C   0  0  0  0  0  0  0  0  0  0  0  0
   20.5711  -18.3502    7.7941 O   0  0  0  0  0  0  0  0  0  0  0  0
   22.7577  -15.9262   13.2517 N   0  0  0  0  0  0  0  0  0  0  0  0
   23.8150  -16.7077   12.7222 C   0  0  0  0  0  0  0  0  0  0  0  0
   24.9664  -16.5593   13.1840 O   0  0  0  0  0  0  0  0  0  0  0  0
   23.5058  -17.6700   11.6398 C   0  0  0  0  0  0  0  0  0  0  0  0
   22.0169  -17.6675   11.3658 C   0  0  0  0  0  0  0  0  0  0  0  0
   21.6648  -18.6971   10.2924 C   0  0  2  0  0  0  0  0  0  0  0  0
   20.2304  -18.6202   10.0376 N   0  0  0  0  0  0  0  0  0  0  0  0
   22.0813  -20.0342   10.7255 C   0  0  0  0  0  0  0  0  0  0  0  0
   21.1271  -20.8966   11.2453 O   0  0  0  0  0  0  0  0  0  0  0  0
   23.2696  -20.4492   10.6519 O   0  0  0  0  0  0  0  0  0  0  0  0
  2  1  1  1
  2  3  1  0
  2 13  1  0
  3  4  1  0
  4 12  1  0
  4  5  2  0
  5  6  1  0
  7  6  1  0
  7  8  2  0
  9  8  1  0
 10  9  2  0
 11 12  2  0
 11 10  1  0
 12  7  1  0
 13 14  2  0
 16 15  1  0
 17 16  1  6
 17 19  1  0
 18 13  1  0
 18 17  1  0
 19 27  1  0
 19 20  2  0
 21 22  1  0
 22 23  2  0
 24 22  1  0
 24 25  1  0
 26 25  1  1
 26 28  1  0
 27 26  1  0
 28 30  2  0
 28 29  1  0
M  END
$$$$
