WSQ.pdb
     RDKit          3D

 30 31  0  0  1  0  0  0  0  0999 V2000
   25.9614  -23.2470  -12.3798 N   0  0  0  0  0  0  0  0  0  0  0  0
   25.4062  -22.0702  -11.8050 C   0  0  1  0  0  0  0  0  0  0  0  0
   26.2231  -20.8241  -11.9608 C   0  0  0  0  0  0  0  0  0  0  0  0
   27.4345  -20.8742  -11.1040 C   0  0  0  0  0  0  0  0  0  0  0  0
   28.7095  -21.2037  -11.5629 C   0  0  0  0  0  0  0  0  0  0  0  0
   29.5976  -21.1870  -10.5613 N   0  0  0  0  0  0  0  0  0  0  0  0
   28.9144  -20.8482   -9.4479 C   0  0  0  0  0  0  0  0  0  0  0  0
   29.3279  -20.6787   -8.1368 C   0  0  0  0  0  0  0  0  0  0  0  0
   28.4163  -20.3188   -7.1702 C   0  0  0  0  0  0  0  0  0  0  0  0
   27.1000  -20.1195   -7.4600 C   0  0  0  0  0  0  0  0  0  0  0  0
   26.6662  -20.2868   -8.7792 C   0  0  0  0  0  0  0  0  0  0  0  0
   27.5770  -20.6477   -9.7476 C   0  0  0  0  0  0  0  0  0  0  0  0
   24.0367  -21.7690  -12.2737 C   0  0  0  0  0  0  0  0  0  0  0  0
   23.7074  -22.2333  -13.4032 O   0  0  0  0  0  0  0  0  0  0  0  0
   21.3850  -19.1709  -10.4659 O   0  0  0  0  0  0  0  0  0  0  0  0
   20.8336  -20.3863  -10.8709 C   0  0  0  0  0  0  0  0  0  0  0  0
   21.6980  -20.9984  -11.9682 C   0  0  2  0  0  0  0  0  0  0  0  0
   23.0739  -21.0191  -11.5832 N   0  0  0  0  0  0  0  0  0  0  0  0
   21.4479  -20.1937  -13.1836 C   0  0  0  0  0  0  0  0  0  0  0  0
   22.1494  -19.1673  -13.3757 O   0  0  0  0  0  0  0  0  0  0  0  0
   22.4470  -19.7838  -17.9157 N   0  0  0  0  0  0  0  0  0  0  0  0
   21.2367  -19.2898  -18.4638 C   0  0  0  0  0  0  0  0  0  0  0  0
   21.2815  -18.6007  -19.5051 O   0  0  0  0  0  0  0  0  0  0  0  0
   19.9670  -19.6144  -17.7742 C   0  0  0  0  0  0  0  0  0  0  0  0
   20.2519  -20.4715  -16.5592 C   0  0  0  0  0  0  0  0  0  0  0  0
   20.2264  -19.6266  -15.2857 C   0  0  2  0  0  0  0  0  0  0  0  0
   20.4665  -20.5070  -14.1475 N   0  0  0  0  0  0  0  0  0  0  0  0
   18.9471  -18.9185  -15.1804 C   0  0  0  0  0  0  0  0  0  0  0  0
   18.7643  -17.7546  -15.9128 O   0  0  0  0  0  0  0  0  0  0  0  0
   17.9938  -19.3111  -14.4545 O   0  0  0  0  0  0  0  0  0  0  0  0
  2  1  1  6
  2  3  1  0
  2 13  1  0
  3  4  1  0
  4 12  1  0
  4  5  2  0
  5  6  1  0
  7  6  1  0
  7  8  2  0
  9  8  1  0
 10  9  2  0
 11 12  2  0
 11 10  1  0
 12  7  1  0
 13 14  2  0
 16 15  1  0
 17 16  1  1
 17 19  1  0
 18 13  1  0
 18 17  1  0
 19 27  1  0
 19 20  2  0
 21 22  1  0
 22 23  2  0
 24 22  1  0
 24 25  1  0
 26 25  1  6
 26 28  1  0
 27 26  1  0
 28 30  2  0
 28 29  1  0
M  END
$$$$
