WSQ.pdb
     RDKit          3D

 30 31  0  0  1  0  0  0  0  0999 V2000
   28.1140  -21.4334  -13.5542 N   0  0  0  0  0  0  0  0  0  0  0  0
   26.9683  -21.2390  -12.7338 C   0  0  1  0  0  0  0  0  0  0  0  0
   27.0569  -20.1109  -11.7519 C   0  0  0  0  0  0  0  0  0  0  0  0
   28.0079  -20.4338  -10.6585 C   0  0  0  0  0  0  0  0  0  0  0  0
   29.3854  -20.5696  -10.8286 C   0  0  0  0  0  0  0  0  0  0  0  0
   29.9816  -20.8835   -9.6718 N   0  0  0  0  0  0  0  0  0  0  0  0
   29.0050  -20.9543   -8.7433 C   0  0  0  0  0  0  0  0  0  0  0  0
   29.0499  -21.2367   -7.3879 C   0  0  0  0  0  0  0  0  0  0  0  0
   27.8889  -21.2406   -6.6483 C   0  0  0  0  0  0  0  0  0  0  0  0
   26.6766  -20.9724   -7.2092 C   0  0  0  0  0  0  0  0  0  0  0  0
   26.6140  -20.6855   -8.5768 C   0  0  0  0  0  0  0  0  0  0  0  0
   27.7748  -20.6818   -9.3185 C   0  0  0  0  0  0  0  0  0  0  0  0
   25.7128  -21.0709  -13.4963 C   0  0  0  0  0  0  0  0  0  0  0  0
   25.7429  -20.2645  -14.4704 O   0  0  0  0  0  0  0  0  0  0  0  0
   22.4836  -23.4522  -12.8737 O   0  0  0  0  0  0  0  0  0  0  0  0
   22.5979  -22.9319  -14.1627 C   0  0  0  0  0  0  0  0  0  0  0  0
   23.3738  -21.6199  -14.1165 C   0  0  2  0  0  0  0  0  0  0  0  0
   24.4973  -21.7211  -13.2394 N   0  0  0  0  0  0  0  0  0  0  0  0
   22.4037  -20.5845  -13.6991 C   0  0  0  0  0  0  0  0  0  0  0  0
   22.3404  -20.2816  -12.4798 O   0  0  0  0  0  0  0  0  0  0  0  0
   19.1519  -15.6613  -14.9780 N   0  0  0  0  0  0  0  0  0  0  0  0
   20.4677  -15.7832  -15.4905 C   0  0  0  0  0  0  0  0  0  0  0  0
   21.1291  -14.7464  -15.7110 O   0  0  0  0  0  0  0  0  0  0  0  0
   21.0023  -17.1411  -15.7430 C   0  0  0  0  0  0  0  0  0  0  0  0
   19.9987  -18.1772  -15.2834 C   0  0  0  0  0  0  0  0  0  0  0  0
   20.5448  -18.9654  -14.0930 C   0  0  2  0  0  0  0  0  0  0  0  0
   21.5398  -19.9107  -14.5877 N   0  0  0  0  0  0  0  0  0  0  0  0
   19.4462  -19.6329  -13.3884 C   0  0  0  0  0  0  0  0  0  0  0  0
   18.6749  -18.8963  -12.5011 O   0  0  0  0  0  0  0  0  0  0  0  0
   19.1595  -20.8508  -13.5444 O   0  0  0  0  0  0  0  0  0  0  0  0
  2  1  1  6
  2  3  1  0
  2 13  1  0
  3  4  1  0
  4 12  1  0
  4  5  2  0
  5  6  1  0
  7  6  1  0
  7  8  2  0
  9  8  1  0
 10  9  2  0
 11 12  2  0
 11 10  1  0
 12  7  1  0
 13 14  2  0
 16 15  1  0
 17 16  1  1
 17 19  1  0
 18 13  1  0
 18 17  1  0
 19 27  1  0
 19 20  2  0
 21 22  1  0
 22 23  2  0
 24 22  1  0
 24 25  1  0
 26 25  1  6
 26 28  1  0
 27 26  1  0
 28 30  2  0
 28 29  1  0
M  END
$$$$
