WSQ.pdb
     RDKit          3D

 30 31  0  0  1  0  0  0  0  0999 V2000
   20.2761  -16.7268  -17.3149 N   0  0  0  0  0  0  0  0  0  0  0  0
   19.9415  -15.4346  -17.8066 C   0  0  1  0  0  0  0  0  0  0  0  0
   18.5663  -14.9468  -17.4669 C   0  0  0  0  0  0  0  0  0  0  0  0
   17.5312  -15.8740  -17.9893 C   0  0  0  0  0  0  0  0  0  0  0  0
   16.8142  -16.7759  -17.2035 C   0  0  0  0  0  0  0  0  0  0  0  0
   15.9669  -17.4936  -17.9512 N   0  0  0  0  0  0  0  0  0  0  0  0
   16.1225  -17.0689  -19.2226 C   0  0  0  0  0  0  0  0  0  0  0  0
   15.5030  -17.4571  -20.3992 C   0  0  0  0  0  0  0  0  0  0  0  0
   15.8443  -16.8514  -21.5874 C   0  0  0  0  0  0  0  0  0  0  0  0
   16.7846  -15.8676  -21.6503 C   0  0  0  0  0  0  0  0  0  0  0  0
   17.4198  -15.4641  -20.4711 C   0  0  0  0  0  0  0  0  0  0  0  0
   17.0799  -16.0697  -19.2814 C   0  0  0  0  0  0  0  0  0  0  0  0
   20.9004  -14.3813  -17.4107 C   0  0  0  0  0  0  0  0  0  0  0  0
   21.1021  -14.2331  -16.1708 O   0  0  0  0  0  0  0  0  0  0  0  0
   23.0011  -11.9147  -20.0608 O   0  0  0  0  0  0  0  0  0  0  0  0
   23.5722  -12.2100  -18.8231 C   0  0  0  0  0  0  0  0  0  0  0  0
   22.4708  -12.5020  -17.8095 C   0  0  2  0  0  0  0  0  0  0  0  0
   21.6038  -13.5357  -18.2803 N   0  0  0  0  0  0  0  0  0  0  0  0
   21.7725  -11.2183  -17.5819 C   0  0  0  0  0  0  0  0  0  0  0  0
   20.7215  -10.9859  -18.2329 O   0  0  0  0  0  0  0  0  0  0  0  0
   21.3815   -5.0826  -13.5039 N   0  0  0  0  0  0  0  0  0  0  0  0
   21.2755   -6.4801  -13.7159 C   0  0  0  0  0  0  0  0  0  0  0  0
   21.2898   -7.2443  -12.7276 O   0  0  0  0  0  0  0  0  0  0  0  0
   21.1518   -6.9741  -15.1065 C   0  0  0  0  0  0  0  0  0  0  0  0
   21.7725   -8.3507  -15.2152 C   0  0  0  0  0  0  0  0  0  0  0  0
   21.5677   -8.9250  -16.6168 C   0  0  2  0  0  0  0  0  0  0  0  0
   22.2133  -10.2320  -16.6746 N   0  0  0  0  0  0  0  0  0  0  0  0
   22.0992   -7.9978  -17.6201 C   0  0  0  0  0  0  0  0  0  0  0  0
   21.3138   -6.9284  -18.0255 O   0  0  0  0  0  0  0  0  0  0  0  0
   23.2411   -8.1182  -18.1411 O   0  0  0  0  0  0  0  0  0  0  0  0
  2  1  1  1
  2  3  1  0
  2 13  1  0
  3  4  1  0
  4 12  1  0
  4  5  2  0
  5  6  1  0
  7  6  1  0
  7  8  2  0
  9  8  1  0
 10  9  2  0
 11 12  2  0
 11 10  1  0
 12  7  1  0
 13 14  2  0
 16 15  1  0
 17 16  1  6
 17 19  1  0
 18 13  1  0
 18 17  1  0
 19 27  1  0
 19 20  2  0
 21 22  1  0
 22 23  2  0
 24 22  1  0
 24 25  1  0
 26 25  1  1
 26 28  1  0
 27 26  1  0
 28 30  2  0
 28 29  1  0
M  END
$$$$
