WSQ.pdb
     RDKit          3D

 30 31  0  0  1  0  0  0  0  0999 V2000
   28.1505  -20.4125  -10.0393 N   0  0  0  0  0  0  0  0  0  0  0  0
   26.9706  -21.2059   -9.9982 C   0  0  1  0  0  0  0  0  0  0  0  0
   26.1127  -21.0311   -8.7825 C   0  0  0  0  0  0  0  0  0  0  0  0
   26.8279  -20.2579   -7.7362 C   0  0  0  0  0  0  0  0  0  0  0  0
   26.9342  -18.8674   -7.7202 C   0  0  0  0  0  0  0  0  0  0  0  0
   27.6532  -18.4546   -6.6691 N   0  0  0  0  0  0  0  0  0  0  0  0
   28.0195  -19.5645   -5.9946 C   0  0  0  0  0  0  0  0  0  0  0  0
   28.7635  -19.7284   -4.8377 C   0  0  0  0  0  0  0  0  0  0  0  0
   28.9952  -20.9921   -4.3434 C   0  0  0  0  0  0  0  0  0  0  0  0
   28.5117  -22.1066   -4.9600 C   0  0  0  0  0  0  0  0  0  0  0  0
   27.7587  -21.9584   -6.1294 C   0  0  0  0  0  0  0  0  0  0  0  0
   27.5264  -20.6946   -6.6259 C   0  0  0  0  0  0  0  0  0  0  0  0
   26.1036  -21.0437  -11.1847 C   0  0  0  0  0  0  0  0  0  0  0  0
   25.8529  -19.8583  -11.5478 O   0  0  0  0  0  0  0  0  0  0  0  0
   24.0491  -24.0993  -13.0682 O   0  0  0  0  0  0  0  0  0  0  0  0
   24.5867  -23.1338  -13.9191 C   0  0  0  0  0  0  0  0  0  0  0  0
   24.8072  -21.8380  -13.1457 C   0  0  2  0  0  0  0  0  0  0  0  0
   25.5366  -22.0795  -11.9410 N   0  0  0  0  0  0  0  0  0  0  0  0
   23.4629  -21.2701  -12.9058 C   0  0  0  0  0  0  0  0  0  0  0  0
   22.9546  -21.3997  -11.7624 O   0  0  0  0  0  0  0  0  0  0  0  0
   21.2723  -16.4008  -14.0918 N   0  0  0  0  0  0  0  0  0  0  0  0
   19.9566  -16.9151  -13.9744 C   0  0  0  0  0  0  0  0  0  0  0  0
   19.0439  -16.1568  -13.5832 O   0  0  0  0  0  0  0  0  0  0  0  0
   19.7218  -18.3353  -14.3225 C   0  0  0  0  0  0  0  0  0  0  0  0
   21.0407  -19.0060  -14.6430 C   0  0  0  0  0  0  0  0  0  0  0  0
   21.3987  -20.0320  -13.5682 C   0  0  2  0  0  0  0  0  0  0  0  0
   22.7101  -20.5874  -13.8843 N   0  0  0  0  0  0  0  0  0  0  0  0
   20.3606  -21.0646  -13.4965 C   0  0  0  0  0  0  0  0  0  0  0  0
   19.2491  -20.8415  -12.6968 O   0  0  0  0  0  0  0  0  0  0  0  0
   20.4210  -22.1550  -14.1265 O   0  0  0  0  0  0  0  0  0  0  0  0
  2  1  1  6
  2  3  1  0
  2 13  1  0
  3  4  1  0
  4 12  1  0
  4  5  2  0
  5  6  1  0
  7  6  1  0
  7  8  2  0
  9  8  1  0
 10  9  2  0
 11 12  2  0
 11 10  1  0
 12  7  1  0
 13 14  2  0
 16 15  1  0
 17 16  1  1
 17 19  1  0
 18 13  1  0
 18 17  1  0
 19 27  1  0
 19 20  2  0
 21 22  1  0
 22 23  2  0
 24 22  1  0
 24 25  1  0
 26 25  1  6
 26 28  1  0
 27 26  1  0
 28 30  2  0
 28 29  1  0
M  END
$$$$
