WSQ.pdb
     RDKit          3D

 30 31  0  0  1  0  0  0  0  0999 V2000
   20.5921  -22.0126  -15.1139 N   0  0  0  0  0  0  0  0  0  0  0  0
   20.8669  -21.2958  -13.9163 C   0  0  1  0  0  0  0  0  0  0  0  0
   20.2639  -19.9273  -13.8260 C   0  0  0  0  0  0  0  0  0  0  0  0
   20.6264  -19.1094  -15.0108 C   0  0  0  0  0  0  0  0  0  0  0  0
   19.7189  -18.3534  -15.7523 C   0  0  0  0  0  0  0  0  0  0  0  0
   20.3292  -17.7400  -16.7738 N   0  0  0  0  0  0  0  0  0  0  0  0
   21.6314  -18.0878  -16.7078 C   0  0  0  0  0  0  0  0  0  0  0  0
   22.7117  -17.7439  -17.5037 C   0  0  0  0  0  0  0  0  0  0  0  0
   23.9632  -18.2390  -17.2143 C   0  0  0  0  0  0  0  0  0  0  0  0
   24.1826  -19.0687  -16.1561 C   0  0  0  0  0  0  0  0  0  0  0  0
   23.1022  -19.4258  -15.3427 C   0  0  0  0  0  0  0  0  0  0  0  0
   21.8490  -18.9318  -15.6313 C   0  0  0  0  0  0  0  0  0  0  0  0
   20.4982  -22.0292  -12.6867 C   0  0  0  0  0  0  0  0  0  0  0  0
   20.0351  -23.1965  -12.8383 O   0  0  0  0  0  0  0  0  0  0  0  0
   20.4152  -20.3987   -8.9814 O   0  0  0  0  0  0  0  0  0  0  0  0
   20.9972  -21.6661   -8.9722 C   0  0  0  0  0  0  0  0  0  0  0  0
   20.6014  -22.4185  -10.2383 C   0  0  2  0  0  0  0  0  0  0  0  0
   20.6148  -21.5511  -11.3737 N   0  0  0  0  0  0  0  0  0  0  0  0
   19.2688  -23.0009   -9.9692 C   0  0  0  0  0  0  0  0  0  0  0  0
   18.2512  -22.3636  -10.3444 O   0  0  0  0  0  0  0  0  0  0  0  0
   17.8674  -28.7109   -7.7460 N   0  0  0  0  0  0  0  0  0  0  0  0
   16.5712  -28.1443   -7.8355 C   0  0  0  0  0  0  0  0  0  0  0  0
   15.5823  -28.8471   -7.5368 O   0  0  0  0  0  0  0  0  0  0  0  0
   16.4467  -26.7375   -8.2812 C   0  0  0  0  0  0  0  0  0  0  0  0
   17.8233  -26.1568   -8.5253 C   0  0  0  0  0  0  0  0  0  0  0  0
   17.7195  -24.7165   -9.0264 C   0  0  2  0  0  0  0  0  0  0  0  0
   19.0657  -24.2340   -9.3146 N   0  0  0  0  0  0  0  0  0  0  0  0
   17.0338  -23.8882   -8.0300 C   0  0  0  0  0  0  0  0  0  0  0  0
   15.6487  -23.9310   -7.9632 O   0  0  0  0  0  0  0  0  0  0  0  0
   17.6372  -23.1313   -7.2222 O   0  0  0  0  0  0  0  0  0  0  0  0
  2  1  1  6
  2  3  1  0
  2 13  1  0
  3  4  1  0
  4 12  1  0
  4  5  2  0
  5  6  1  0
  7  6  1  0
  7  8  2  0
  9  8  1  0
 10  9  2  0
 11 12  2  0
 11 10  1  0
 12  7  1  0
 13 14  2  0
 16 15  1  0
 17 16  1  1
 17 19  1  0
 18 13  1  0
 18 17  1  0
 19 27  1  0
 19 20  2  0
 21 22  1  0
 22 23  2  0
 24 22  1  0
 24 25  1  0
 26 25  1  1
 26 28  1  0
 27 26  1  0
 28 30  2  0
 28 29  1  0
M  END
$$$$
