WSQ.pdb
     RDKit          3D

 30 31  0  0  1  0  0  0  0  0999 V2000
   25.9799  -18.6271  -11.2828 N   0  0  0  0  0  0  0  0  0  0  0  0
   26.4469  -19.9183  -11.6543 C   0  0  1  0  0  0  0  0  0  0  0  0
   26.0077  -21.0463  -10.7716 C   0  0  0  0  0  0  0  0  0  0  0  0
   26.1492  -20.6838   -9.3388 C   0  0  0  0  0  0  0  0  0  0  0  0
   25.0847  -20.3437   -8.5045 C   0  0  0  0  0  0  0  0  0  0  0  0
   25.5180  -20.0448   -7.2737 N   0  0  0  0  0  0  0  0  0  0  0  0
   26.8599  -20.1866   -7.2940 C   0  0  0  0  0  0  0  0  0  0  0  0
   27.8135  -20.0118   -6.3046 C   0  0  0  0  0  0  0  0  0  0  0  0
   29.1432  -20.2301   -6.5861 C   0  0  0  0  0  0  0  0  0  0  0  0
   29.5635  -20.6184   -7.8226 C   0  0  0  0  0  0  0  0  0  0  0  0
   28.6131  -20.7991   -8.8329 C   0  0  0  0  0  0  0  0  0  0  0  0
   27.2821  -20.5805   -8.5531 C   0  0  0  0  0  0  0  0  0  0  0  0
   26.1233  -20.2890  -13.0484 C   0  0  0  0  0  0  0  0  0  0  0  0
   25.0154  -19.8813  -13.5025 O   0  0  0  0  0  0  0  0  0  0  0  0
   28.2075  -23.0102  -15.5327 O   0  0  0  0  0  0  0  0  0  0  0  0
   27.7838  -21.7922  -16.0639 C   0  0  0  0  0  0  0  0  0  0  0  0
   26.5820  -21.2822  -15.2756 C   0  0  2  0  0  0  0  0  0  0  0  0
   26.9290  -21.0479  -13.9094 N   0  0  0  0  0  0  0  0  0  0  0  0
   25.5227  -22.3013  -15.4383 C   0  0  0  0  0  0  0  0  0  0  0  0
   25.2233  -23.0158  -14.4471 O   0  0  0  0  0  0  0  0  0  0  0  0
   21.3714  -22.2687  -13.1859 N   0  0  0  0  0  0  0  0  0  0  0  0
   21.0679  -23.0668  -14.3172 C   0  0  0  0  0  0  0  0  0  0  0  0
   20.7104  -24.2513  -14.1432 O   0  0  0  0  0  0  0  0  0  0  0  0
   21.1887  -22.4576  -15.6617 C   0  0  0  0  0  0  0  0  0  0  0  0
   22.6007  -21.9515  -15.8667 C   0  0  0  0  0  0  0  0  0  0  0  0
   23.4361  -22.9793  -16.6295 C   0  0  2  0  0  0  0  0  0  0  0  0
   24.8220  -22.5238  -16.6423 N   0  0  0  0  0  0  0  0  0  0  0  0
   22.8975  -23.1581  -17.9811 C   0  0  0  0  0  0  0  0  0  0  0  0
   21.9555  -24.1529  -18.1998 O   0  0  0  0  0  0  0  0  0  0  0  0
   23.2452  -22.4523  -18.9663 O   0  0  0  0  0  0  0  0  0  0  0  0
  2  1  1  1
  2  3  1  0
  2 13  1  0
  3  4  1  0
  4 12  1  0
  4  5  2  0
  5  6  1  0
  7  6  1  0
  7  8  2  0
  9  8  1  0
 10  9  2  0
 11 12  2  0
 11 10  1  0
 12  7  1  0
 13 14  2  0
 16 15  1  0
 17 16  1  6
 17 19  1  0
 18 13  1  0
 18 17  1  0
 19 27  1  0
 19 20  2  0
 21 22  1  0
 22 23  2  0
 24 22  1  0
 24 25  1  0
 26 25  1  6
 26 28  1  0
 27 26  1  0
 28 30  2  0
 28 29  1  0
M  END
$$$$
