EEC.pdb
     RDKit          3D

 25 24  0  0  1  0  0  0  0  0999 V2000
   17.1059  -14.0600  -14.9704 N   0  0  0  0  0  0  0  0  0  0  0  0
   16.8630  -12.9629  -15.8423 C   0  0  1  0  0  0  0  0  0  0  0  0
   15.4563  -12.7904  -16.2929 C   0  0  0  0  0  0  0  0  0  0  0  0
   14.9802  -13.9380  -17.1031 C   0  0  0  0  0  0  0  0  0  0  0  0
   13.6350  -13.6961  -17.6384 C   0  0  0  0  0  0  0  0  0  0  0  0
   12.5911  -13.6929  -16.9676 O   0  0  0  0  0  0  0  0  0  0  0  0
   17.3917  -11.7114  -15.1996 C   0  0  0  0  0  0  0  0  0  0  0  0
   17.0175  -11.3628  -14.0602 O   0  0  0  0  0  0  0  0  0  0  0  0
   13.5087  -13.4492  -19.0080 O   0  0  0  0  0  0  0  0  0  0  0  0
   18.3279  -10.9165  -15.8972 N   0  0  0  0  0  0  0  0  0  0  0  0
   18.9056   -9.7053  -15.3439 C   0  0  1  0  0  0  0  0  0  0  0  0
   20.2638   -9.4077  -15.9405 C   0  0  0  0  0  0  0  0  0  0  0  0
   20.8489   -8.1316  -15.4148 C   0  0  0  0  0  0  0  0  0  0  0  0
   22.1590   -7.8997  -16.0499 C   0  0  0  0  0  0  0  0  0  0  0  0
   22.6391   -8.7569  -16.8141 O   0  0  0  0  0  0  0  0  0  0  0  0
   17.9439   -8.6008  -15.6481 C   0  0  0  0  0  0  0  0  0  0  0  0
   17.2704   -8.6962  -16.6974 O   0  0  0  0  0  0  0  0  0  0  0  0
   22.8529   -6.7385  -15.8001 O   0  0  0  0  0  0  0  0  0  0  0  0
   17.7674   -7.4807  -14.8203 N   0  0  0  0  0  0  0  0  0  0  0  0
   16.8865   -6.3860  -15.1399 C   0  0  1  0  0  0  0  0  0  0  0  0
   15.5160   -6.6493  -14.5525 C   0  0  0  0  0  0  0  0  0  0  0  0
   14.5443   -5.1102  -14.7122 S   0  0  0  0  0  0  0  0  0  0  0  0
   17.3686   -5.1096  -14.5744 C   0  0  0  0  0  0  0  0  0  0  0  0
   16.7693   -3.9153  -14.8798 O   0  0  0  0  0  0  0  0  0  0  0  0
   18.3548   -5.1331  -13.7942 O   0  0  0  0  0  0  0  0  0  0  0  0
  2  1  1  1
  3  4  1  0
  3  2  1  0
  5  4  1  0
  5  6  2  0
  7  2  1  0
  7  8  2  0
  9  5  1  0
 10  7  1  0
 11 10  1  0
 11 16  1  0
 11 12  1  6
 13 12  1  0
 14 13  1  0
 14 15  2  0
 16 17  2  0
 18 14  1  0
 19 16  1  0
 19 20  1  0
 20 23  1  0
 20 21  1  1
 22 21  1  0
 23 25  2  0
 23 24  1  0
M  END
$$$$
