EEC.pdb
     RDKit          3D

 25 24  0  0  1  0  0  0  0  0999 V2000
   25.5848  -24.4394  -16.0217 N   0  0  0  0  0  0  0  0  0  0  0  0
   25.5512  -23.2426  -15.2540 C   0  0  1  0  0  0  0  0  0  0  0  0
   26.8487  -22.5323  -15.1010 C   0  0  0  0  0  0  0  0  0  0  0  0
   27.8553  -22.9787  -16.0948 C   0  0  0  0  0  0  0  0  0  0  0  0
   28.3612  -21.8531  -16.8896 C   0  0  0  0  0  0  0  0  0  0  0  0
   27.9670  -20.6804  -16.7956 O   0  0  0  0  0  0  0  0  0  0  0  0
   24.4927  -22.3378  -15.8197 C   0  0  0  0  0  0  0  0  0  0  0  0
   24.2811  -22.2811  -17.0492 O   0  0  0  0  0  0  0  0  0  0  0  0
   29.3646  -22.1110  -17.8273 O   0  0  0  0  0  0  0  0  0  0  0  0
   23.7246  -21.5383  -14.9445 N   0  0  0  0  0  0  0  0  0  0  0  0
   22.6751  -20.6466  -15.4032 C   0  0  1  0  0  0  0  0  0  0  0  0
   21.3813  -20.8685  -14.6509 C   0  0  0  0  0  0  0  0  0  0  0  0
   20.2618  -20.0257  -15.1835 C   0  0  0  0  0  0  0  0  0  0  0  0
   19.0266  -20.3315  -14.4389 C   0  0  0  0  0  0  0  0  0  0  0  0
   18.4538  -19.4358  -13.7918 O   0  0  0  0  0  0  0  0  0  0  0  0
   23.1779  -19.2547  -15.1860 C   0  0  0  0  0  0  0  0  0  0  0  0
   23.3813  -18.8933  -14.0063 O   0  0  0  0  0  0  0  0  0  0  0  0
   18.5052  -21.6043  -14.4571 O   0  0  0  0  0  0  0  0  0  0  0  0
   23.4274  -18.3518  -16.2317 N   0  0  0  0  0  0  0  0  0  0  0  0
   23.8596  -16.9929  -16.0236 C   0  0  1  0  0  0  0  0  0  0  0  0
   25.0298  -16.6875  -16.9347 C   0  0  0  0  0  0  0  0  0  0  0  0
   26.4540  -17.6710  -16.3489 S   0  0  0  0  0  0  0  0  0  0  0  0
   22.7922  -16.0222  -16.3395 C   0  0  0  0  0  0  0  0  0  0  0  0
   22.9444  -14.6816  -16.0984 O   0  0  0  0  0  0  0  0  0  0  0  0
   21.7215  -16.4498  -16.8421 O   0  0  0  0  0  0  0  0  0  0  0  0
  2  1  1  6
  3  4  1  0
  3  2  1  0
  5  4  1  0
  5  6  2  0
  7  2  1  0
  7  8  2  0
  9  5  1  0
 10  7  1  0
 11 10  1  0
 11 16  1  0
 11 12  1  1
 13 12  1  0
 14 13  1  0
 14 15  2  0
 16 17  2  0
 18 14  1  0
 19 16  1  0
 19 20  1  0
 20 23  1  0
 20 21  1  6
 22 21  1  0
 23 25  2  0
 23 24  1  0
M  END
$$$$
