EEC.pdb
     RDKit          3D

 25 24  0  0  1  0  0  0  0  0999 V2000
   19.7530  -11.5040  -15.7853 N   0  0  0  0  0  0  0  0  0  0  0  0
   18.5458  -10.8056  -16.0642 C   0  0  1  0  0  0  0  0  0  0  0  0
   17.2914  -11.5891  -15.9094 C   0  0  0  0  0  0  0  0  0  0  0  0
   17.5515  -13.0386  -15.7313 C   0  0  0  0  0  0  0  0  0  0  0  0
   16.3009  -13.8011  -15.6369 C   0  0  0  0  0  0  0  0  0  0  0  0
   16.2255  -15.0319  -15.4981 O   0  0  0  0  0  0  0  0  0  0  0  0
   18.5149   -9.5499  -15.2388 C   0  0  0  0  0  0  0  0  0  0  0  0
   17.7391   -9.4348  -14.2669 O   0  0  0  0  0  0  0  0  0  0  0  0
   15.0963  -13.0966  -15.7074 O   0  0  0  0  0  0  0  0  0  0  0  0
   19.3787   -8.4822  -15.5690 N   0  0  0  0  0  0  0  0  0  0  0  0
   19.3868   -7.2203  -14.8519 C   0  0  1  0  0  0  0  0  0  0  0  0
   20.7949   -6.7346  -14.5861 C   0  0  0  0  0  0  0  0  0  0  0  0
   20.8179   -5.4660  -13.7879 C   0  0  0  0  0  0  0  0  0  0  0  0
   22.2167   -5.0546  -13.5693 C   0  0  0  0  0  0  0  0  0  0  0  0
   23.1457   -5.7423  -14.0312 O   0  0  0  0  0  0  0  0  0  0  0  0
   18.6458   -6.2427  -15.7077 C   0  0  0  0  0  0  0  0  0  0  0  0
   18.8806   -6.2587  -16.9359 O   0  0  0  0  0  0  0  0  0  0  0  0
   22.4984   -3.9127  -12.8559 O   0  0  0  0  0  0  0  0  0  0  0  0
   17.7136   -5.3236  -15.2005 N   0  0  0  0  0  0  0  0  0  0  0  0
   17.0034   -4.3755  -16.0211 C   0  0  1  0  0  0  0  0  0  0  0  0
   15.5289   -4.4127  -15.6791 C   0  0  0  0  0  0  0  0  0  0  0  0
   14.8881   -6.0474  -16.1850 S   0  0  0  0  0  0  0  0  0  0  0  0
   17.4719   -2.9932  -15.7946 C   0  0  0  0  0  0  0  0  0  0  0  0
   17.0981   -1.9628  -16.6176 O   0  0  0  0  0  0  0  0  0  0  0  0
   18.2328   -2.7697  -14.8185 O   0  0  0  0  0  0  0  0  0  0  0  0
  2  1  1  1
  3  4  1  0
  3  2  1  0
  5  4  1  0
  5  6  2  0
  7  2  1  0
  7  8  2  0
  9  5  1  0
 10  7  1  0
 11 10  1  0
 11 16  1  0
 11 12  1  6
 13 12  1  0
 14 13  1  0
 14 15  2  0
 16 17  2  0
 18 14  1  0
 19 16  1  0
 19 20  1  0
 20 23  1  0
 20 21  1  1
 22 21  1  0
 23 25  2  0
 23 24  1  0
M  END
$$$$
