EEC.pdb
     RDKit          3D

 25 24  0  0  1  0  0  0  0  0999 V2000
   20.6681  -13.5295  -16.1764 N   0  0  0  0  0  0  0  0  0  0  0  0
   19.9145  -12.3959  -16.5884 C   0  0  1  0  0  0  0  0  0  0  0  0
   18.7419  -12.0522  -15.7409 C   0  0  0  0  0  0  0  0  0  0  0  0
   17.7754  -13.1726  -15.6365 C   0  0  0  0  0  0  0  0  0  0  0  0
   16.6045  -12.7988  -14.8341 C   0  0  0  0  0  0  0  0  0  0  0  0
   16.3145  -11.6416  -14.4929 O   0  0  0  0  0  0  0  0  0  0  0  0
   20.8469  -11.2265  -16.7368 C   0  0  0  0  0  0  0  0  0  0  0  0
   21.9305  -11.1817  -16.1175 O   0  0  0  0  0  0  0  0  0  0  0  0
   15.7431  -13.8170  -14.4171 O   0  0  0  0  0  0  0  0  0  0  0  0
   20.4905  -10.1602  -17.5920 N   0  0  0  0  0  0  0  0  0  0  0  0
   21.3028   -8.9677  -17.7506 C   0  0  1  0  0  0  0  0  0  0  0  0
   21.0281   -8.2721  -19.0658 C   0  0  0  0  0  0  0  0  0  0  0  0
   21.8582   -7.0362  -19.2400 C   0  0  0  0  0  0  0  0  0  0  0  0
   21.5618   -6.4326  -20.5520 C   0  0  0  0  0  0  0  0  0  0  0  0
   22.2260   -6.7622  -21.5517 O   0  0  0  0  0  0  0  0  0  0  0  0
   20.9669   -8.0714  -16.6012 C   0  0  0  0  0  0  0  0  0  0  0  0
   19.7757   -8.0431  -16.2218 O   0  0  0  0  0  0  0  0  0  0  0  0
   20.5530   -5.5054  -20.6747 O   0  0  0  0  0  0  0  0  0  0  0  0
   21.9153   -7.2741  -15.9409 N   0  0  0  0  0  0  0  0  0  0  0  0
   21.6045   -6.4445  -14.8043 C   0  0  1  0  0  0  0  0  0  0  0  0
   22.1663   -7.0747  -13.5474 C   0  0  0  0  0  0  0  0  0  0  0  0
   21.8955   -5.8993  -12.1748 S   0  0  0  0  0  0  0  0  0  0  0  0
   22.2023   -5.0994  -14.9260 C   0  0  0  0  0  0  0  0  0  0  0  0
   21.6240   -4.0000  -14.3465 O   0  0  0  0  0  0  0  0  0  0  0  0
   23.2688   -4.9734  -15.5804 O   0  0  0  0  0  0  0  0  0  0  0  0
  2  1  1  1
  3  4  1  0
  3  2  1  0
  5  4  1  0
  5  6  2  0
  7  2  1  0
  7  8  2  0
  9  5  1  0
 10  7  1  0
 11 10  1  0
 11 16  1  0
 11 12  1  6
 13 12  1  0
 14 13  1  0
 14 15  2  0
 16 17  2  0
 18 14  1  0
 19 16  1  0
 19 20  1  0
 20 23  1  0
 20 21  1  1
 22 21  1  0
 23 25  2  0
 23 24  1  0
M  END
$$$$
