EEC.pdb
     RDKit          3D

 25 24  0  0  1  0  0  0  0  0999 V2000
   23.5072  -11.6327  -16.5073 N   0  0  0  0  0  0  0  0  0  0  0  0
   22.3178  -10.9854  -16.9420 C   0  0  1  0  0  0  0  0  0  0  0  0
   21.1322  -11.8630  -17.1304 C   0  0  0  0  0  0  0  0  0  0  0  0
   21.4418  -13.0583  -17.9524 C   0  0  0  0  0  0  0  0  0  0  0  0
   20.2713  -13.9333  -18.0901 C   0  0  0  0  0  0  0  0  0  0  0  0
   19.3981  -14.0969  -17.2239 O   0  0  0  0  0  0  0  0  0  0  0  0
   22.0176   -9.8501  -16.0039 C   0  0  0  0  0  0  0  0  0  0  0  0
   21.8662  -10.0464  -14.7798 O   0  0  0  0  0  0  0  0  0  0  0  0
   20.1187  -14.6412  -19.2852 O   0  0  0  0  0  0  0  0  0  0  0  0
   21.9052   -8.5388  -16.5167 N   0  0  0  0  0  0  0  0  0  0  0  0
   21.5725   -7.3922  -15.6911 C   0  0  1  0  0  0  0  0  0  0  0  0
   22.1750   -6.1152  -16.2346 C   0  0  0  0  0  0  0  0  0  0  0  0
   21.7615   -4.9099  -15.4451 C   0  0  0  0  0  0  0  0  0  0  0  0
   22.3912   -3.7096  -16.0249 C   0  0  0  0  0  0  0  0  0  0  0  0
   21.7138   -2.6826  -16.2138 O   0  0  0  0  0  0  0  0  0  0  0  0
   20.0795   -7.3032  -15.6728 C   0  0  0  0  0  0  0  0  0  0  0  0
   19.4815   -7.4298  -16.7638 O   0  0  0  0  0  0  0  0  0  0  0  0
   23.7258   -3.7213  -16.3583 O   0  0  0  0  0  0  0  0  0  0  0  0
   19.3330   -7.0876  -14.5035 N   0  0  0  0  0  0  0  0  0  0  0  0
   17.8997   -6.9391  -14.4905 C   0  0  1  0  0  0  0  0  0  0  0  0
   17.2975   -7.9133  -13.5000 C   0  0  0  0  0  0  0  0  0  0  0  0
   15.4944   -7.6196  -13.4667 S   0  0  0  0  0  0  0  0  0  0  0  0
   17.4915   -5.5819  -14.0749 C   0  0  0  0  0  0  0  0  0  0  0  0
   16.4414   -4.9325  -14.6700 O   0  0  0  0  0  0  0  0  0  0  0  0
   18.1321   -5.0192  -13.1504 O   0  0  0  0  0  0  0  0  0  0  0  0
  2  1  1  1
  3  4  1  0
  3  2  1  0
  5  4  1  0
  5  6  2  0
  7  2  1  0
  7  8  2  0
  9  5  1  0
 10  7  1  0
 11 10  1  0
 11 16  1  0
 11 12  1  6
 13 12  1  0
 14 13  1  0
 14 15  2  0
 16 17  2  0
 18 14  1  0
 19 16  1  0
 19 20  1  0
 20 23  1  0
 20 21  1  1
 22 21  1  0
 23 25  2  0
 23 24  1  0
M  END
$$$$
