EEC.pdb
     RDKit          3D

 25 24  0  0  1  0  0  0  0  0999 V2000
   19.4153  -25.0005   -9.5275 N   0  0  0  0  0  0  0  0  0  0  0  0
   18.1678  -25.4150   -8.9846 C   0  0  1  0  0  0  0  0  0  0  0  0
   17.6757  -26.7459   -9.4297 C   0  0  0  0  0  0  0  0  0  0  0  0
   18.5482  -27.8523   -8.9661 C   0  0  0  0  0  0  0  0  0  0  0  0
   17.7594  -28.9972   -8.4954 C   0  0  0  0  0  0  0  0  0  0  0  0
   18.1216  -30.1827   -8.5500 O   0  0  0  0  0  0  0  0  0  0  0  0
   18.2433  -25.3300   -7.4859 C   0  0  0  0  0  0  0  0  0  0  0  0
   19.3422  -25.3437   -6.8927 O   0  0  0  0  0  0  0  0  0  0  0  0
   16.5020  -28.7438   -7.9410 O   0  0  0  0  0  0  0  0  0  0  0  0
   17.0500  -25.2328   -6.7365 N   0  0  0  0  0  0  0  0  0  0  0  0
   17.0292  -24.9232   -5.3185 C   0  0  1  0  0  0  0  0  0  0  0  0
   15.7361  -24.2529   -4.9090 C   0  0  0  0  0  0  0  0  0  0  0  0
   15.6588  -24.0214   -3.4300 C   0  0  0  0  0  0  0  0  0  0  0  0
   14.3462  -23.4383   -3.0973 C   0  0  0  0  0  0  0  0  0  0  0  0
   13.8509  -23.6257   -1.9709 O   0  0  0  0  0  0  0  0  0  0  0  0
   17.1984  -26.2237   -4.5992 C   0  0  0  0  0  0  0  0  0  0  0  0
   16.5372  -27.2011   -5.0131 O   0  0  0  0  0  0  0  0  0  0  0  0
   13.6668  -22.6875   -4.0285 O   0  0  0  0  0  0  0  0  0  0  0  0
   18.0532  -26.3918   -3.4982 N   0  0  0  0  0  0  0  0  0  0  0  0
   18.1682  -27.6246   -2.7610 C   0  0  1  0  0  0  0  0  0  0  0  0
   19.5713  -27.7557   -2.2071 C   0  0  0  0  0  0  0  0  0  0  0  0
   19.6519  -29.3284   -1.2803 S   0  0  0  0  0  0  0  0  0  0  0  0
   17.2378  -27.6682   -1.6147 C   0  0  0  0  0  0  0  0  0  0  0  0
   16.9570  -28.8393   -0.9601 O   0  0  0  0  0  0  0  0  0  0  0  0
   16.6964  -26.5967   -1.2399 O   0  0  0  0  0  0  0  0  0  0  0  0
  2  1  1  6
  3  4  1  0
  3  2  1  0
  5  4  1  0
  5  6  2  0
  7  2  1  0
  7  8  2  0
  9  5  1  0
 10  7  1  0
 11 10  1  0
 11 16  1  0
 11 12  1  1
 13 12  1  0
 14 13  1  0
 14 15  2  0
 16 17  2  0
 18 14  1  0
 19 16  1  0
 19 20  1  0
 20 23  1  0
 20 21  1  1
 22 21  1  0
 23 25  2  0
 23 24  1  0
M  END
$$$$
