EEC.pdb
     RDKit          3D

 25 24  0  0  1  0  0  0  0  0999 V2000
   27.7336  -22.0800  -16.6860 N   0  0  0  0  0  0  0  0  0  0  0  0
   27.6281  -21.0377  -15.7241 C   0  0  1  0  0  0  0  0  0  0  0  0
   27.5250  -19.6581  -16.2696 C   0  0  0  0  0  0  0  0  0  0  0  0
   26.7261  -19.6051  -17.5184 C   0  0  0  0  0  0  0  0  0  0  0  0
   26.6781  -18.2449  -18.0679 C   0  0  0  0  0  0  0  0  0  0  0  0
   27.6671  -17.5827  -18.4186 O   0  0  0  0  0  0  0  0  0  0  0  0
   26.4849  -21.3501  -14.7997 C   0  0  0  0  0  0  0  0  0  0  0  0
   25.5563  -22.1064  -15.1535 O   0  0  0  0  0  0  0  0  0  0  0  0
   25.4270  -17.6394  -18.2116 O   0  0  0  0  0  0  0  0  0  0  0  0
   26.4616  -20.7778  -13.5085 N   0  0  0  0  0  0  0  0  0  0  0  0
   25.4375  -21.0829  -12.5262 C   0  0  1  0  0  0  0  0  0  0  0  0
   25.8871  -20.7428  -11.1221 C   0  0  0  0  0  0  0  0  0  0  0  0
   24.8494  -21.0812  -10.0947 C   0  0  0  0  0  0  0  0  0  0  0  0
   25.3619  -20.7392   -8.7554 C   0  0  0  0  0  0  0  0  0  0  0  0
   26.3199  -19.9532   -8.6390 O   0  0  0  0  0  0  0  0  0  0  0  0
   24.2357  -20.2764  -12.9036 C   0  0  0  0  0  0  0  0  0  0  0  0
   24.4247  -19.2468  -13.5877 O   0  0  0  0  0  0  0  0  0  0  0  0
   24.7843  -21.2866   -7.6333 O   0  0  0  0  0  0  0  0  0  0  0  0
   22.9267  -20.6196  -12.5296 N   0  0  0  0  0  0  0  0  0  0  0  0
   21.7529  -20.1544  -13.2240 C   0  0  1  0  0  0  0  0  0  0  0  0
   21.7770  -20.6547  -14.6530 C   0  0  0  0  0  0  0  0  0  0  0  0
   20.2716  -20.0307  -15.4795 S   0  0  0  0  0  0  0  0  0  0  0  0
   20.5112  -20.6588  -12.6033 C   0  0  0  0  0  0  0  0  0  0  0  0
   19.4424  -19.8356  -12.3604 O   0  0  0  0  0  0  0  0  0  0  0  0
   20.4460  -21.8762  -12.2945 O   0  0  0  0  0  0  0  0  0  0  0  0
  2  1  1  6
  3  4  1  0
  3  2  1  0
  5  4  1  0
  5  6  2  0
  7  2  1  0
  7  8  2  0
  9  5  1  0
 10  7  1  0
 11 10  1  0
 11 16  1  0
 11 12  1  1
 13 12  1  0
 14 13  1  0
 14 15  2  0
 16 17  2  0
 18 14  1  0
 19 16  1  0
 19 20  1  0
 20 23  1  0
 20 21  1  6
 22 21  1  0
 23 25  2  0
 23 24  1  0
M  END
$$$$
