WTD.pdb
     RDKit          3D

 30 31  0  0  1  0  0  0  0  0999 V2000
    6.5726  -17.5710   24.0651 N   0  0  0  0  0  0  0  0  0  0  0  0
    7.7320  -16.6970   23.8409 C   0  0  1  0  0  0  0  0  0  0  0  0
    8.1901  -16.2473   25.2243 C   0  0  0  0  0  0  0  0  0  0  0  0
    7.1673  -15.2630   25.6776 C   0  0  0  0  0  0  0  0  0  0  0  0
    5.9005  -15.4837   26.1114 C   0  0  0  0  0  0  0  0  0  0  0  0
    5.2955  -14.3119   26.4273 N   0  0  0  0  0  0  0  0  0  0  0  0
    6.1855  -13.3280   26.1933 C   0  0  0  0  0  0  0  0  0  0  0  0
    6.1373  -11.9530   26.3286 C   0  0  0  0  0  0  0  0  0  0  0  0
    7.2099  -11.1635   26.0134 C   0  0  0  0  0  0  0  0  0  0  0  0
    8.3619  -11.7553   25.5513 C   0  0  0  0  0  0  0  0  0  0  0  0
    8.4642  -13.1256   25.3972 C   0  0  0  0  0  0  0  0  0  0  0  0
    7.3597  -13.8845   25.7264 C   0  0  0  0  0  0  0  0  0  0  0  0
    8.7968  -17.4330   23.1096 C   0  0  0  0  0  0  0  0  0  0  0  0
    8.8239  -18.6838   23.2810 O   0  0  0  0  0  0  0  0  0  0  0  0
   10.1584  -16.9778   19.4395 C   0  0  0  0  0  0  0  0  0  0  0  0
   11.2995  -16.9257   20.4070 C   0  0  1  0  0  0  0  0  0  0  0  0
   11.8973  -15.6868   20.4626 O   0  0  0  0  0  0  0  0  0  0  0  0
   10.8966  -17.4654   21.7618 C   0  0  2  0  0  0  0  0  0  0  0  0
    9.7298  -16.7789   22.2687 N   0  0  0  0  0  0  0  0  0  0  0  0
   12.0163  -17.4003   22.7327 C   0  0  0  0  0  0  0  0  0  0  0  0
   12.1857  -16.3451   23.4289 O   0  0  0  0  0  0  0  0  0  0  0  0
   12.9331  -18.4567   22.9436 N   0  0  0  0  0  0  0  0  0  0  0  0
   14.0695  -18.3308   23.8921 C   0  0  1  0  0  0  0  0  0  0  0  0
   14.4190  -19.6656   24.4451 C   0  0  0  0  0  0  0  0  0  0  0  0
   14.9653  -19.5677   25.7981 C   0  0  0  0  0  0  0  0  0  0  0  0
   15.1729  -18.4665   26.3388 O   0  0  0  0  0  0  0  0  0  0  0  0
   15.1973  -17.7028   23.1654 C   0  0  0  0  0  0  0  0  0  0  0  0
   15.1989  -17.3198   21.8600 O   0  0  0  0  0  0  0  0  0  0  0  0
   15.2857  -20.6987   26.5616 O   0  0  0  0  0  0  0  0  0  0  0  0
   16.2787  -17.4938   23.8062 O   0  0  0  0  0  0  0  0  0  0  0  0
  2  1  1  1
  2  3  1  0
  3  4  1  0
  4  5  2  0
  4 12  1  0
  5  6  1  0
  6  7  1  0
  7  8  2  0
  8  9  1  0
 10  9  2  0
 11 10  1  0
 12 11  2  0
 12  7  1  0
 13  2  1  0
 13 19  1  0
 14 13  2  0
 16 15  1  6
 16 18  1  0
 17 16  1  0
 18 19  1  1
 18 20  1  0
 20 22  1  0
 20 21  2  0
 22 23  1  0
 23 24  1  6
 25 24  1  0
 26 25  2  0
 27 23  1  0
 27 28  1  0
 29 25  1  0
 30 27  2  0
M  END
$$$$
