WTD.pdb
     RDKit          3D

 30 31  0  0  1  0  0  0  0  0999 V2000
    6.8522  -17.6163   24.6747 N   0  0  0  0  0  0  0  0  0  0  0  0
    7.8579  -16.6009   24.3342 C   0  0  1  0  0  0  0  0  0  0  0  0
    8.2536  -15.9458   25.6534 C   0  0  0  0  0  0  0  0  0  0  0  0
    7.1175  -15.0478   26.0040 C   0  0  0  0  0  0  0  0  0  0  0  0
    5.8803  -15.3707   26.4587 C   0  0  0  0  0  0  0  0  0  0  0  0
    5.1386  -14.2522   26.6532 N   0  0  0  0  0  0  0  0  0  0  0  0
    5.9100  -13.1994   26.3194 C   0  0  0  0  0  0  0  0  0  0  0  0
    5.6995  -11.8330   26.3132 C   0  0  0  0  0  0  0  0  0  0  0  0
    6.6759  -10.9589   25.9184 C   0  0  0  0  0  0  0  0  0  0  0  0
    7.8945  -11.4550   25.5187 C   0  0  0  0  0  0  0  0  0  0  0  0
    8.1584  -12.8124   25.5057 C   0  0  0  0  0  0  0  0  0  0  0  0
    7.1466  -13.6584   25.9114 C   0  0  0  0  0  0  0  0  0  0  0  0
    9.0176  -17.2341   23.6527 C   0  0  0  0  0  0  0  0  0  0  0  0
    9.2721  -18.4258   23.9840 O   0  0  0  0  0  0  0  0  0  0  0  0
   10.0361  -17.1366   19.8508 C   0  0  0  0  0  0  0  0  0  0  0  0
   11.1979  -16.7214   20.6988 C   0  0  1  0  0  0  0  0  0  0  0  0
   11.5250  -15.3931   20.5444 O   0  0  0  0  0  0  0  0  0  0  0  0
   11.0004  -17.1332   22.1412 C   0  0  2  0  0  0  0  0  0  0  0  0
    9.7964  -16.5496   22.6882 N   0  0  0  0  0  0  0  0  0  0  0  0
   12.1811  -16.7963   22.9737 C   0  0  0  0  0  0  0  0  0  0  0  0
   12.2430  -15.6591   23.5481 O   0  0  0  0  0  0  0  0  0  0  0  0
   13.2717  -17.6736   23.1785 N   0  0  0  0  0  0  0  0  0  0  0  0
   14.4271  -17.3015   24.0350 C   0  0  1  0  0  0  0  0  0  0  0  0
   14.9725  -18.5112   24.7049 C   0  0  0  0  0  0  0  0  0  0  0  0
   14.1112  -18.9631   25.7969 C   0  0  0  0  0  0  0  0  0  0  0  0
   13.1245  -18.3008   26.1653 O   0  0  0  0  0  0  0  0  0  0  0  0
   15.4276  -16.6268   23.1759 C   0  0  0  0  0  0  0  0  0  0  0  0
   16.5371  -15.9646   23.6019 O   0  0  0  0  0  0  0  0  0  0  0  0
   14.3428  -20.1596   26.4892 O   0  0  0  0  0  0  0  0  0  0  0  0
   15.2498  -16.6571   21.9145 O   0  0  0  0  0  0  0  0  0  0  0  0
  2  1  1  1
  2  3  1  0
  3  4  1  0
  4  5  2  0
  4 12  1  0
  5  6  1  0
  6  7  1  0
  7  8  2  0
  8  9  1  0
 10  9  2  0
 11 10  1  0
 12 11  2  0
 12  7  1  0
 13  2  1  0
 13 19  1  0
 14 13  2  0
 16 15  1  6
 16 18  1  0
 17 16  1  0
 18 19  1  1
 18 20  1  0
 20 22  1  0
 20 21  2  0
 22 23  1  0
 23 24  1  6
 25 24  1  0
 26 25  2  0
 27 23  1  0
 27 28  1  0
 29 25  1  0
 30 27  2  0
M  END
$$$$
