WTD.pdb
     RDKit          3D

 30 31  0  0  1  0  0  0  0  0999 V2000
    6.4911  -17.2977   25.3957 N   0  0  0  0  0  0  0  0  0  0  0  0
    7.0210  -16.1116   24.7097 C   0  0  1  0  0  0  0  0  0  0  0  0
    8.2079  -15.6416   25.5442 C   0  0  0  0  0  0  0  0  0  0  0  0
    7.6269  -14.7560   26.5922 C   0  0  0  0  0  0  0  0  0  0  0  0
    7.2415  -15.0650   27.8562 C   0  0  0  0  0  0  0  0  0  0  0  0
    6.7576  -13.9666   28.4874 N   0  0  0  0  0  0  0  0  0  0  0  0
    6.8340  -12.9409   27.6173 C   0  0  0  0  0  0  0  0  0  0  0  0
    6.4953  -11.6028   27.6958 C   0  0  0  0  0  0  0  0  0  0  0  0
    6.6808  -10.7531   26.6391 C   0  0  0  0  0  0  0  0  0  0  0  0
    7.2171  -11.2452   25.4725 C   0  0  0  0  0  0  0  0  0  0  0  0
    7.5735  -12.5748   25.3400 C   0  0  0  0  0  0  0  0  0  0  0  0
    7.3699  -13.3969   26.4293 C   0  0  0  0  0  0  0  0  0  0  0  0
    7.4154  -16.4558   23.3181 C   0  0  0  0  0  0  0  0  0  0  0  0
    7.6053  -17.6819   23.0831 O   0  0  0  0  0  0  0  0  0  0  0  0
    8.4133  -13.4268   20.4601 C   0  0  0  0  0  0  0  0  0  0  0  0
    7.7645  -14.6969   20.0052 C   0  0  1  0  0  0  0  0  0  0  0  0
    8.0700  -15.0161   18.7013 O   0  0  0  0  0  0  0  0  0  0  0  0
    8.0199  -15.8246   20.9809 C   0  0  2  0  0  0  0  0  0  0  0  0
    7.5713  -15.4741   22.3096 N   0  0  0  0  0  0  0  0  0  0  0  0
    9.4472  -16.2285   20.9902 C   0  0  0  0  0  0  0  0  0  0  0  0
   10.2579  -15.6586   21.7932 O   0  0  0  0  0  0  0  0  0  0  0  0
    9.9842  -17.2287   20.1462 N   0  0  0  0  0  0  0  0  0  0  0  0
   11.4159  -17.6201   20.2069 C   0  0  1  0  0  0  0  0  0  0  0  0
   11.5346  -19.0998   20.2845 C   0  0  0  0  0  0  0  0  0  0  0  0
   12.9310  -19.5340   20.2889 C   0  0  0  0  0  0  0  0  0  0  0  0
   13.4117  -20.1918   19.3485 O   0  0  0  0  0  0  0  0  0  0  0  0
   12.0895  -17.0569   19.0139 C   0  0  0  0  0  0  0  0  0  0  0  0
   11.4849  -16.4190   17.9754 O   0  0  0  0  0  0  0  0  0  0  0  0
   13.8054  -19.2382   21.3436 O   0  0  0  0  0  0  0  0  0  0  0  0
   13.3560  -17.1715   18.9328 O   0  0  0  0  0  0  0  0  0  0  0  0
  2  1  1  1
  2  3  1  0
  3  4  1  0
  4  5  2  0
  4 12  1  0
  5  6  1  0
  6  7  1  0
  7  8  2  0
  8  9  1  0
 10  9  2  0
 11 10  1  0
 12 11  2  0
 12  7  1  0
 13  2  1  0
 13 19  1  0
 14 13  2  0
 16 15  1  1
 16 18  1  0
 17 16  1  0
 18 19  1  1
 18 20  1  0
 20 22  1  0
 20 21  2  0
 22 23  1  0
 23 24  1  6
 25 24  1  0
 26 25  2  0
 27 23  1  0
 27 28  1  0
 29 25  1  0
 30 27  2  0
M  END
$$$$
