WTD.pdb
     RDKit          3D

 30 31  0  0  1  0  0  0  0  0999 V2000
    6.0035  -17.8764   24.7879 N   0  0  0  0  0  0  0  0  0  0  0  0
    6.8625  -16.7985   24.2792 C   0  0  1  0  0  0  0  0  0  0  0  0
    7.7266  -16.3614   25.4574 C   0  0  0  0  0  0  0  0  0  0  0  0
    6.9774  -15.2474   26.1039 C   0  0  0  0  0  0  0  0  0  0  0  0
    5.9274  -15.3067   26.9615 C   0  0  0  0  0  0  0  0  0  0  0  0
    5.5325  -14.0589   27.3164 N   0  0  0  0  0  0  0  0  0  0  0  0
    6.3396  -13.1890   26.6786 C   0  0  0  0  0  0  0  0  0  0  0  0
    6.4155  -11.8088   26.6528 C   0  0  0  0  0  0  0  0  0  0  0  0
    7.3552  -11.1563   25.9016 C   0  0  0  0  0  0  0  0  0  0  0  0
    8.2438  -11.8942   25.1554 C   0  0  0  0  0  0  0  0  0  0  0  0
    8.2123  -13.2766   25.1448 C   0  0  0  0  0  0  0  0  0  0  0  0
    7.2493  -13.8944   25.9162 C   0  0  0  0  0  0  0  0  0  0  0  0
    7.6784  -17.2873   23.1365 C   0  0  0  0  0  0  0  0  0  0  0  0
    7.7093  -18.5391   22.9729 O   0  0  0  0  0  0  0  0  0  0  0  0
    7.7098  -15.6659   19.6797 C   0  0  0  0  0  0  0  0  0  0  0  0
    9.1300  -16.0258   19.9870 C   0  0  1  0  0  0  0  0  0  0  0  0
    9.9608  -14.9291   20.0365 O   0  0  0  0  0  0  0  0  0  0  0  0
    9.2203  -16.9101   21.2113 C   0  0  2  0  0  0  0  0  0  0  0  0
    8.3827  -16.4091   22.2774 N   0  0  0  0  0  0  0  0  0  0  0  0
   10.6225  -17.0727   21.6675 C   0  0  0  0  0  0  0  0  0  0  0  0
   11.0685  -16.3350   22.6076 O   0  0  0  0  0  0  0  0  0  0  0  0
   11.5220  -18.0147   21.1157 N   0  0  0  0  0  0  0  0  0  0  0  0
   12.9943  -17.8443   21.2154 C   0  0  1  0  0  0  0  0  0  0  0  0
   13.3996  -16.5575   20.5913 C   0  0  0  0  0  0  0  0  0  0  0  0
   14.8493  -16.3681   20.6279 C   0  0  0  0  0  0  0  0  0  0  0  0
   15.6081  -17.2359   21.0958 O   0  0  0  0  0  0  0  0  0  0  0  0
   13.3624  -17.9228   22.6481 C   0  0  0  0  0  0  0  0  0  0  0  0
   14.2316  -18.8072   23.2077 O   0  0  0  0  0  0  0  0  0  0  0  0
   15.4667  -15.2072   20.1422 O   0  0  0  0  0  0  0  0  0  0  0  0
   12.8234  -17.0919   23.4500 O   0  0  0  0  0  0  0  0  0  0  0  0
  2  1  1  1
  2  3  1  0
  3  4  1  0
  4  5  2  0
  4 12  1  0
  5  6  1  0
  6  7  1  0
  7  8  2  0
  8  9  1  0
 10  9  2  0
 11 10  1  0
 12 11  2  0
 12  7  1  0
 13  2  1  0
 13 19  1  0
 14 13  2  0
 16 15  1  1
 16 18  1  0
 17 16  1  0
 18 19  1  1
 18 20  1  0
 20 22  1  0
 20 21  2  0
 22 23  1  0
 23 24  1  1
 25 24  1  0
 26 25  2  0
 27 23  1  0
 27 28  1  0
 29 25  1  0
 30 27  2  0
M  END
$$$$
