WTD.pdb
     RDKit          3D

 30 31  0  0  1  0  0  0  0  0999 V2000
    9.2345  -15.9896   21.6276 N   0  0  0  0  0  0  0  0  0  0  0  0
    8.7573  -16.0343   23.0164 C   0  0  1  0  0  0  0  0  0  0  0  0
    7.2571  -15.7677   22.9516 C   0  0  0  0  0  0  0  0  0  0  0  0
    7.1171  -14.2854   23.0124 C   0  0  0  0  0  0  0  0  0  0  0  0
    6.9536  -13.3990   21.9980 C   0  0  0  0  0  0  0  0  0  0  0  0
    6.8712  -12.1344   22.4805 N   0  0  0  0  0  0  0  0  0  0  0  0
    6.9830  -12.2112   23.8208 C   0  0  0  0  0  0  0  0  0  0  0  0
    6.9711  -11.2659   24.8297 C   0  0  0  0  0  0  0  0  0  0  0  0
    7.1068  -11.6194   26.1449 C   0  0  0  0  0  0  0  0  0  0  0  0
    7.2584  -12.9475   26.4674 C   0  0  0  0  0  0  0  0  0  0  0  0
    7.2771  -13.9337   25.4983 C   0  0  0  0  0  0  0  0  0  0  0  0
    7.1372  -13.5341   24.1849 C   0  0  0  0  0  0  0  0  0  0  0  0
    9.0661  -17.3556   23.6239 C   0  0  0  0  0  0  0  0  0  0  0  0
    8.4366  -18.3433   23.1519 O   0  0  0  0  0  0  0  0  0  0  0  0
    9.9009  -20.0360   23.0267 C   0  0  0  0  0  0  0  0  0  0  0  0
   10.9776  -19.6400   23.9885 C   0  0  1  0  0  0  0  0  0  0  0  0
   12.0624  -19.0621   23.3683 O   0  0  0  0  0  0  0  0  0  0  0  0
   10.4205  -18.8150   25.1279 C   0  0  2  0  0  0  0  0  0  0  0  0
   10.0085  -17.5074   24.6700 N   0  0  0  0  0  0  0  0  0  0  0  0
   11.3859  -18.7067   26.2490 C   0  0  0  0  0  0  0  0  0  0  0  0
   12.2378  -17.7575   26.2572 O   0  0  0  0  0  0  0  0  0  0  0  0
   11.4271  -19.6090   27.3377 N   0  0  0  0  0  0  0  0  0  0  0  0
   11.9423  -19.2053   28.6713 C   0  0  1  0  0  0  0  0  0  0  0  0
   10.9526  -18.3315   29.3543 C   0  0  0  0  0  0  0  0  0  0  0  0
   11.3243  -16.9196   29.2704 C   0  0  0  0  0  0  0  0  0  0  0  0
   12.3479  -16.5502   28.6673 O   0  0  0  0  0  0  0  0  0  0  0  0
   12.2343  -20.4401   29.4357 C   0  0  0  0  0  0  0  0  0  0  0  0
   12.9470  -20.5205   30.5917 O   0  0  0  0  0  0  0  0  0  0  0  0
   10.5568  -15.9054   29.8593 O   0  0  0  0  0  0  0  0  0  0  0  0
   11.7847  -21.5433   28.9834 O   0  0  0  0  0  0  0  0  0  0  0  0
  2  1  1  6
  2  3  1  0
  3  4  1  0
  4  5  2  0
  4 12  1  0
  5  6  1  0
  6  7  1  0
  7  8  2  0
  8  9  1  0
 10  9  2  0
 11 10  1  0
 12 11  2  0
 12  7  1  0
 13  2  1  0
 13 19  1  0
 14 13  2  0
 16 15  1  6
 16 18  1  0
 17 16  1  0
 18 19  1  6
 18 20  1  0
 20 22  1  0
 20 21  2  0
 22 23  1  0
 23 24  1  1
 25 24  1  0
 26 25  2  0
 27 23  1  0
 27 28  1  0
 29 25  1  0
 30 27  2  0
M  END
$$$$
