WTD.pdb
     RDKit          3D

 30 31  0  0  1  0  0  0  0  0999 V2000
    7.3649  -16.8957   23.6728 N   0  0  0  0  0  0  0  0  0  0  0  0
    8.5550  -16.0346   23.6939 C   0  0  1  0  0  0  0  0  0  0  0  0
    8.8318  -15.7401   25.1645 C   0  0  0  0  0  0  0  0  0  0  0  0
    7.5902  -15.0958   25.6779 C   0  0  0  0  0  0  0  0  0  0  0  0
    6.4628  -15.6754   26.1624 C   0  0  0  0  0  0  0  0  0  0  0  0
    5.5600  -14.7302   26.5236 N   0  0  0  0  0  0  0  0  0  0  0  0
    6.1157  -13.5299   26.2677 C   0  0  0  0  0  0  0  0  0  0  0  0
    5.6781  -12.2282   26.4278 C   0  0  0  0  0  0  0  0  0  0  0  0
    6.4608  -11.1608   26.0797 C   0  0  0  0  0  0  0  0  0  0  0  0
    7.7121  -11.3920   25.5584 C   0  0  0  0  0  0  0  0  0  0  0  0
    8.1991  -12.6735   25.3772 C   0  0  0  0  0  0  0  0  0  0  0  0
    7.3777  -13.7208   25.7413 C   0  0  0  0  0  0  0  0  0  0  0  0
    9.6977  -16.7205   23.0349 C   0  0  0  0  0  0  0  0  0  0  0  0
    9.3978  -17.5906   22.1702 O   0  0  0  0  0  0  0  0  0  0  0  0
   10.7487  -16.6117   20.5124 C   0  0  0  0  0  0  0  0  0  0  0  0
   12.0838  -16.3691   21.1447 C   0  0  1  0  0  0  0  0  0  0  0  0
   12.4851  -15.0550   21.0591 O   0  0  0  0  0  0  0  0  0  0  0  0
   12.1364  -16.9285   22.5495 C   0  0  2  0  0  0  0  0  0  0  0  0
   11.0454  -16.4228   23.3516 N   0  0  0  0  0  0  0  0  0  0  0  0
   13.4432  -16.6592   23.1978 C   0  0  0  0  0  0  0  0  0  0  0  0
   13.6552  -15.5246   23.7406 O   0  0  0  0  0  0  0  0  0  0  0  0
   14.4979  -17.6001   23.2559 N   0  0  0  0  0  0  0  0  0  0  0  0
   15.6882  -17.3912   24.1199 C   0  0  1  0  0  0  0  0  0  0  0  0
   16.2628  -18.7031   24.5178 C   0  0  0  0  0  0  0  0  0  0  0  0
   15.4604  -19.3577   25.5504 C   0  0  0  0  0  0  0  0  0  0  0  0
   14.4712  -18.7996   26.0581 O   0  0  0  0  0  0  0  0  0  0  0  0
   16.6507  -16.5527   23.3683 C   0  0  0  0  0  0  0  0  0  0  0  0
   16.5247  -16.1458   22.0763 O   0  0  0  0  0  0  0  0  0  0  0  0
   15.7544  -20.6427   26.0269 O   0  0  0  0  0  0  0  0  0  0  0  0
   17.7045  -16.1661   23.9715 O   0  0  0  0  0  0  0  0  0  0  0  0
  2  1  1  1
  2  3  1  0
  3  4  1  0
  4  5  2  0
  4 12  1  0
  5  6  1  0
  6  7  1  0
  7  8  2  0
  8  9  1  0
 10  9  2  0
 11 10  1  0
 12 11  2  0
 12  7  1  0
 13  2  1  0
 13 19  1  0
 14 13  2  0
 16 15  1  1
 16 18  1  0
 17 16  1  0
 18 19  1  1
 18 20  1  0
 20 22  1  0
 20 21  2  0
 22 23  1  0
 23 24  1  6
 25 24  1  0
 26 25  2  0
 27 23  1  0
 27 28  1  0
 29 25  1  0
 30 27  2  0
M  END
$$$$
