CDT.pdb
     RDKit          3D

 22 21  0  0  1  0  0  0  0  0999 V2000
    8.0019  -15.9650   17.6816 N   0  0  0  0  0  0  0  0  0  0  0  0
    9.0433  -15.1847   18.3098 C   0  0  1  0  0  0  0  0  0  0  0  0
    8.3917  -13.9811   18.9877 C   0  0  0  0  0  0  0  0  0  0  0  0
    7.7629  -12.8620   17.7178 S   0  0  0  0  0  0  0  0  0  0  0  0
    9.6125  -16.0001   19.4350 C   0  0  0  0  0  0  0  0  0  0  0  0
    8.9791  -17.0094   19.8048 O   0  0  0  0  0  0  0  0  0  0  0  0
   10.8233  -15.6467   20.0610 N   0  0  0  0  0  0  0  0  0  0  0  0
   11.3390  -16.4731   21.1475 C   0  0  1  0  0  0  0  0  0  0  0  0
   12.8231  -16.6233   21.0691 C   0  0  0  0  0  0  0  0  0  0  0  0
   13.4114  -17.4199   22.1292 C   0  0  0  0  0  0  0  0  0  0  0  0
   12.9112  -18.3862   22.7298 O   0  0  0  0  0  0  0  0  0  0  0  0
   10.8574  -15.9358   22.4466 C   0  0  0  0  0  0  0  0  0  0  0  0
   11.6757  -15.3827   23.2120 O   0  0  0  0  0  0  0  0  0  0  0  0
   14.7187  -17.0867   22.5628 O   0  0  0  0  0  0  0  0  0  0  0  0
    7.7761  -13.6613   23.2675 C   0  0  0  0  0  0  0  0  0  0  0  0
    7.7352  -14.9090   24.1218 C   0  0  1  0  0  0  0  0  0  0  0  0
    6.9480  -15.8937   23.4919 O   0  0  0  0  0  0  0  0  0  0  0  0
    9.1419  -15.4826   24.1572 C   0  0  2  0  0  0  0  0  0  0  0  0
    9.5217  -16.0139   22.8727 N   0  0  0  0  0  0  0  0  0  0  0  0
    9.2533  -16.5504   25.1846 C   0  0  0  0  0  0  0  0  0  0  0  0
    9.6036  -17.7237   24.9033 O   0  0  0  0  0  0  0  0  0  0  0  0
    8.9637  -16.2563   26.5056 O   0  0  0  0  0  0  0  0  0  0  0  0
  2  1  1  1
  2  5  1  0
  3  2  1  0
  4  3  1  0
  5  6  2  0
  7  5  1  0
  7  8  1  0
  8 12  1  0
  9 10  1  0
  8  9  1  1
 10 11  2  0
 12 19  1  0
 12 13  2  0
 14 10  1  0
 16 15  1  6
 16 18  1  0
 17 16  1  0
 18 20  1  0
 18 19  1  6
 20 21  2  0
 20 22  1  0
M  END
$$$$
