CDT.pdb
     RDKit          3D

 22 21  0  0  1  0  0  0  0  0999 V2000
    7.9185  -14.0343   17.0738 N   0  0  0  0  0  0  0  0  0  0  0  0
    9.1611  -13.7519   17.7550 C   0  0  1  0  0  0  0  0  0  0  0  0
    8.9283  -12.5739   18.6989 C   0  0  0  0  0  0  0  0  0  0  0  0
    7.5444  -12.9626   19.7917 S   0  0  0  0  0  0  0  0  0  0  0  0
    9.4654  -14.9141   18.6559 C   0  0  0  0  0  0  0  0  0  0  0  0
    8.5570  -15.7423   18.8694 O   0  0  0  0  0  0  0  0  0  0  0  0
   10.7332  -15.0752   19.2470 N   0  0  0  0  0  0  0  0  0  0  0  0
   10.9764  -16.2124   20.1284 C   0  0  1  0  0  0  0  0  0  0  0  0
   12.3408  -16.7855   19.9249 C   0  0  0  0  0  0  0  0  0  0  0  0
   12.6537  -17.9261   20.7649 C   0  0  0  0  0  0  0  0  0  0  0  0
   11.9141  -18.8757   21.0751 O   0  0  0  0  0  0  0  0  0  0  0  0
   10.6944  -15.8167   21.5327 C   0  0  0  0  0  0  0  0  0  0  0  0
   11.4384  -14.9783   22.0848 O   0  0  0  0  0  0  0  0  0  0  0  0
   13.9549  -18.0046   21.3206 O   0  0  0  0  0  0  0  0  0  0  0  0
    7.6731  -14.2210   22.9328 C   0  0  0  0  0  0  0  0  0  0  0  0
    7.9179  -15.4451   23.7871 C   0  0  1  0  0  0  0  0  0  0  0  0
    7.1792  -16.5345   23.2838 O   0  0  0  0  0  0  0  0  0  0  0  0
    9.3762  -15.8359   23.6151 C   0  0  2  0  0  0  0  0  0  0  0  0
    9.6298  -16.3353   22.2874 N   0  0  0  0  0  0  0  0  0  0  0  0
    9.7705  -16.8647   24.6122 C   0  0  0  0  0  0  0  0  0  0  0  0
   10.2067  -17.9950   24.2793 O   0  0  0  0  0  0  0  0  0  0  0  0
    9.6587  -16.5817   25.9623 O   0  0  0  0  0  0  0  0  0  0  0  0
  2  1  1  1
  2  5  1  0
  3  2  1  0
  4  3  1  0
  5  6  2  0
  7  5  1  0
  7  8  1  0
  8 12  1  0
  9 10  1  0
  8  9  1  1
 10 11  2  0
 12 19  1  0
 12 13  2  0
 14 10  1  0
 16 15  1  6
 16 18  1  0
 17 16  1  0
 18 20  1  0
 18 19  1  6
 20 21  2  0
 20 22  1  0
M  END
$$$$
