CDT.pdb
     RDKit          3D

 22 21  0  0  1  0  0  0  0  0999 V2000
    7.6090  -14.4472   18.4419 N   0  0  0  0  0  0  0  0  0  0  0  0
    8.7144  -14.2825   19.3577 C   0  0  1  0  0  0  0  0  0  0  0  0
    8.8195  -12.8010   19.7140 C   0  0  0  0  0  0  0  0  0  0  0  0
    7.2205  -12.2308   20.3291 S   0  0  0  0  0  0  0  0  0  0  0  0
    8.3496  -14.9641   20.6451 C   0  0  0  0  0  0  0  0  0  0  0  0
    7.2825  -15.6094   20.6834 O   0  0  0  0  0  0  0  0  0  0  0  0
    9.1786  -14.8851   21.7806 N   0  0  0  0  0  0  0  0  0  0  0  0
    8.9129  -15.7487   22.9263 C   0  0  1  0  0  0  0  0  0  0  0  0
    9.7397  -16.9920   22.8829 C   0  0  0  0  0  0  0  0  0  0  0  0
    9.5670  -17.8782   24.0182 C   0  0  0  0  0  0  0  0  0  0  0  0
    8.5358  -18.0828   24.6813 O   0  0  0  0  0  0  0  0  0  0  0  0
    9.0699  -14.9664   24.1800 C   0  0  0  0  0  0  0  0  0  0  0  0
   10.1890  -14.4829   24.4540 O   0  0  0  0  0  0  0  0  0  0  0  0
   10.6906  -18.6216   24.4575 O   0  0  0  0  0  0  0  0  0  0  0  0
    6.8308  -12.0060   25.4691 C   0  0  0  0  0  0  0  0  0  0  0  0
    6.9738  -13.0696   26.5351 C   0  0  1  0  0  0  0  0  0  0  0  0
    5.9133  -13.9921   26.4349 O   0  0  0  0  0  0  0  0  0  0  0  0
    8.2288  -13.8655   26.2185 C   0  0  2  0  0  0  0  0  0  0  0  0
    8.0240  -14.7356   25.0881 N   0  0  0  0  0  0  0  0  0  0  0  0
    8.6545  -14.6730   27.3910 C   0  0  0  0  0  0  0  0  0  0  0  0
    8.8916  -14.1603   28.5133 O   0  0  0  0  0  0  0  0  0  0  0  0
    8.7995  -16.0428   27.2572 O   0  0  0  0  0  0  0  0  0  0  0  0
  2  1  1  6
  2  5  1  0
  3  2  1  0
  4  3  1  0
  5  6  2  0
  7  5  1  0
  7  8  1  0
  8 12  1  0
  9 10  1  0
  8  9  1  1
 10 11  2  0
 12 19  1  0
 12 13  2  0
 14 10  1  0
 16 15  1  6
 16 18  1  0
 17 16  1  0
 18 20  1  0
 18 19  1  6
 20 21  2  0
 20 22  1  0
M  END
$$$$
