CDT.pdb
     RDKit          3D

 22 21  0  0  1  0  0  0  0  0999 V2000
    9.5359  -13.4694   19.0631 N   0  0  0  0  0  0  0  0  0  0  0  0
    8.1924  -13.5369   19.5906 C   0  0  1  0  0  0  0  0  0  0  0  0
    7.2692  -14.0289   18.4778 C   0  0  0  0  0  0  0  0  0  0  0  0
    7.2818  -12.8264   17.1307 S   0  0  0  0  0  0  0  0  0  0  0  0
    8.1601  -14.6229   20.6272 C   0  0  0  0  0  0  0  0  0  0  0  0
    7.0558  -14.9266   21.1221 O   0  0  0  0  0  0  0  0  0  0  0  0
    9.3333  -15.2858   21.0358 N   0  0  0  0  0  0  0  0  0  0  0  0
    9.2655  -16.2717   22.1094 C   0  0  1  0  0  0  0  0  0  0  0  0
   10.3359  -17.3051   21.9772 C   0  0  0  0  0  0  0  0  0  0  0  0
   10.2697  -18.0990   20.7649 C   0  0  0  0  0  0  0  0  0  0  0  0
    9.2576  -18.5084   20.1709 O   0  0  0  0  0  0  0  0  0  0  0  0
    9.2638  -15.5729   23.4208 C   0  0  0  0  0  0  0  0  0  0  0  0
   10.2098  -14.8047   23.6970 O   0  0  0  0  0  0  0  0  0  0  0  0
   11.4897  -18.4754   20.1501 O   0  0  0  0  0  0  0  0  0  0  0  0
    7.0329  -13.1349   25.1756 C   0  0  0  0  0  0  0  0  0  0  0  0
    7.1223  -14.3573   26.0621 C   0  0  1  0  0  0  0  0  0  0  0  0
    6.0625  -15.2386   25.7689 O   0  0  0  0  0  0  0  0  0  0  0  0
    8.3861  -15.1077   25.6765 C   0  0  2  0  0  0  0  0  0  0  0  0
    8.2515  -15.7262   24.3819 N   0  0  0  0  0  0  0  0  0  0  0  0
    8.7152  -16.1463   26.6870 C   0  0  0  0  0  0  0  0  0  0  0  0
    8.7960  -17.3666   26.3989 O   0  0  0  0  0  0  0  0  0  0  0  0
    8.9438  -15.7706   27.9991 O   0  0  0  0  0  0  0  0  0  0  0  0
  2  1  1  6
  2  5  1  0
  3  2  1  0
  4  3  1  0
  5  6  2  0
  7  5  1  0
  7  8  1  0
  8 12  1  0
  9 10  1  0
  8  9  1  1
 10 11  2  0
 12 19  1  0
 12 13  2  0
 14 10  1  0
 16 15  1  6
 16 18  1  0
 17 16  1  0
 18 20  1  0
 18 19  1  6
 20 21  2  0
 20 22  1  0
M  END
$$$$
