CDT.pdb
     RDKit          3D

 22 21  0  0  1  0  0  0  0  0999 V2000
    7.5010  -14.9103   18.1094 N   0  0  0  0  0  0  0  0  0  0  0  0
    8.5570  -14.4459   18.9795 C   0  0  1  0  0  0  0  0  0  0  0  0
    8.1200  -13.1151   19.5886 C   0  0  0  0  0  0  0  0  0  0  0  0
    8.1938  -11.8356   18.3166 S   0  0  0  0  0  0  0  0  0  0  0  0
    8.6437  -15.3925   20.1421 C   0  0  0  0  0  0  0  0  0  0  0  0
    7.6218  -16.0405   20.4462 O   0  0  0  0  0  0  0  0  0  0  0  0
    9.8361  -15.5527   20.8737 N   0  0  0  0  0  0  0  0  0  0  0  0
    9.8985  -16.5496   21.9374 C   0  0  1  0  0  0  0  0  0  0  0  0
   11.1400  -17.3754   21.8467 C   0  0  0  0  0  0  0  0  0  0  0  0
   11.3417  -18.2950   22.9503 C   0  0  0  0  0  0  0  0  0  0  0  0
   10.5274  -19.0971   23.4385 O   0  0  0  0  0  0  0  0  0  0  0  0
    9.7173  -15.8800   23.2516 C   0  0  0  0  0  0  0  0  0  0  0  0
   10.5445  -15.0137   23.6072 O   0  0  0  0  0  0  0  0  0  0  0  0
   12.6124  -18.3115   23.5772 O   0  0  0  0  0  0  0  0  0  0  0  0
    7.0758  -13.4670   25.2641 C   0  0  0  0  0  0  0  0  0  0  0  0
    7.1004  -14.9491   25.5652 C   0  0  1  0  0  0  0  0  0  0  0  0
    6.3339  -15.6439   24.6083 O   0  0  0  0  0  0  0  0  0  0  0  0
    8.5271  -15.4311   25.3627 C   0  0  2  0  0  0  0  0  0  0  0  0
    8.6600  -16.1661   24.1303 N   0  0  0  0  0  0  0  0  0  0  0  0
    8.9635  -16.2870   26.4964 C   0  0  0  0  0  0  0  0  0  0  0  0
    9.3991  -17.4540   26.3323 O   0  0  0  0  0  0  0  0  0  0  0  0
    8.8935  -15.7937   27.7875 O   0  0  0  0  0  0  0  0  0  0  0  0
  2  1  1  6
  2  5  1  0
  3  2  1  0
  4  3  1  0
  5  6  2  0
  7  5  1  0
  7  8  1  0
  8 12  1  0
  9 10  1  0
  8  9  1  1
 10 11  2  0
 12 19  1  0
 12 13  2  0
 14 10  1  0
 16 15  1  6
 16 18  1  0
 17 16  1  0
 18 20  1  0
 18 19  1  6
 20 21  2  0
 20 22  1  0
M  END
$$$$
