RQY.pdb
     RDKit          3D

 33 33  0  0  1  0  0  0  0  0999 V2000
    9.1207  -12.4757   19.0111 N   0  0  0  0  0  0  0  0  0  0  0  0
    8.2931  -13.3437   18.2594 C   0  0  0  0  0  0  0  0  0  0  0  0
    8.5911  -13.6611   17.0223 N   0  0  0  0  0  0  0  0  0  0  0  0
    7.1117  -13.9165   18.7826 N   0  0  0  0  0  0  0  0  0  0  0  0
    7.1405  -14.4904   20.1378 C   0  0  0  0  0  0  0  0  0  0  0  0
    7.6173  -15.9029   20.1036 C   0  0  0  0  0  0  0  0  0  0  0  0
    7.8844  -16.5658   21.4081 C   0  0  0  0  0  0  0  0  0  0  0  0
    6.7915  -17.4721   21.8388 C   0  0  2  0  0  0  0  0  0  0  0  0
    5.5099  -17.2304   21.2281 N   0  0  0  0  0  0  0  0  0  0  0  0
    6.5864  -17.4181   23.3323 C   0  0  0  0  0  0  0  0  0  0  0  0
    5.6997  -16.6670   23.7964 O   0  0  0  0  0  0  0  0  0  0  0  0
    7.9711  -14.3515   16.5444 N   0  0  0  0  0  0  0  0  0  0  0  0
    7.3893  -22.0347   26.9528 C   0  0  0  0  0  0  0  0  0  0  0  0
    7.4657  -21.0818   28.0273 O   0  0  0  0  0  0  0  0  0  0  0  0
    7.5400  -21.4885   29.2025 C   0  0  0  0  0  0  0  0  0  0  0  0
    7.4486  -19.6664   27.6483 C   0  0  0  0  0  0  0  0  0  0  0  0
    7.3439  -19.4771   26.1801 C   0  0  1  0  0  0  0  0  0  0  0  0
    7.3183  -18.0523   25.6854 N   0  0  0  0  0  0  0  0  0  0  0  0
    7.3608  -18.1854   24.2161 C   0  0  0  0  0  0  0  0  0  0  0  0
    8.4632  -17.2274   26.1346 O   0  0  0  0  0  0  0  0  0  0  0  0
    9.5786  -17.3477   25.5074 O   0  0  0  0  0  0  0  0  0  0  0  0
    5.3977  -11.1645   25.2115 C   0  0  0  0  0  0  0  0  0  0  0  0
    6.3481  -11.9086   25.9201 C   0  0  0  0  0  0  0  0  0  0  0  0
    7.4601  -12.4611   25.3256 C   0  0  0  0  0  0  0  0  0  0  0  0
    8.3937  -13.1983   26.0491 C   0  0  0  0  0  0  0  0  0  0  0  0
    8.2168  -13.3918   27.4020 C   0  0  0  0  0  0  0  0  0  0  0  0
    9.2009  -14.1731   28.1420 C   0  0  2  0  0  0  0  0  0  0  0  0
    9.6418  -15.4518   27.4763 N   0  0  0  0  0  0  0  0  0  0  0  0
    8.4792  -16.3008   27.1887 C   0  0  0  0  0  0  0  0  0  0  0  0
   10.5487  -16.2085   28.3530 O   0  0  0  0  0  0  0  0  0  0  0  0
   11.7658  -15.6949   28.7607 C   0  0  0  0  0  0  0  0  0  0  0  0
    7.1013  -12.8389   28.0056 C   0  0  0  0  0  0  0  0  0  0  0  0
    6.2032  -12.1221   27.2753 O   0  0  0  0  0  0  0  0  0  0  0  0
  2  3  2  0
  2  1  1  0
  4  2  1  0
  5  4  1  0
  6  7  1  0
  6  5  1  0
  8  9  1  6
  8  7  1  0
 10  8  1  0
 11 10  2  0
 12 13  1  0
 13 15  1  0
 14 13  2  0
 15 16  1  0
 17 16  1  6
 17 19  1  0
 17 18  1  0
 18 10  1  0
 19 28  1  0
 20 19  2  0
 22 21  1  0
 23 22  2  0
 24 23  1  0
 25 24  2  0
 25 31  1  0
 26 25  1  0
 27 28  1  0
 27 29  1  0
 27 26  1  6
 29 33  2  0
 29 30  1  0
 31 32  2  0
 32 22  1  0
M  END
$$$$
