RQY.pdb
     RDKit          3D

 33 33  0  0  1  0  0  0  0  0999 V2000
    4.9715  -22.6974   25.4474 N   0  0  0  0  0  0  0  0  0  0  0  0
    4.9670  -23.2649   24.1507 C   0  0  0  0  0  0  0  0  0  0  0  0
    4.8636  -24.5610   23.9788 N   0  0  0  0  0  0  0  0  0  0  0  0
    5.0711  -22.4867   22.9755 N   0  0  0  0  0  0  0  0  0  0  0  0
    5.2834  -21.0355   23.1013 C   0  0  0  0  0  0  0  0  0  0  0  0
    6.6060  -20.7472   23.7270 C   0  0  0  0  0  0  0  0  0  0  0  0
    6.9784  -19.3188   23.9100 C   0  0  0  0  0  0  0  0  0  0  0  0
    7.6804  -18.7419   22.7372 C   0  0  2  0  0  0  0  0  0  0  0  0
    8.8390  -19.4704   22.2891 N   0  0  0  0  0  0  0  0  0  0  0  0
    8.1248  -17.3250   23.0022 C   0  0  0  0  0  0  0  0  0  0  0  0
    8.8907  -17.0993   23.9657 O   0  0  0  0  0  0  0  0  0  0  0  0
    4.8387  -24.9113   22.9960 N   0  0  0  0  0  0  0  0  0  0  0  0
    7.6972  -12.2490   19.0071 C   0  0  0  0  0  0  0  0  0  0  0  0
    8.2361  -13.5742   18.8602 O   0  0  0  0  0  0  0  0  0  0  0  0
    8.2961  -14.0889   17.7272 C   0  0  0  0  0  0  0  0  0  0  0  0
    8.6849  -14.2374   20.0875 C   0  0  0  0  0  0  0  0  0  0  0  0
    7.6869  -14.1345   21.1811 C   0  0  2  0  0  0  0  0  0  0  0  0
    8.0273  -14.8383   22.4711 N   0  0  0  0  0  0  0  0  0  0  0  0
    7.7044  -16.2528   22.2002 C   0  0  0  0  0  0  0  0  0  0  0  0
    7.2507  -14.3760   23.6443 O   0  0  0  0  0  0  0  0  0  0  0  0
    6.2043  -15.0432   23.9784 O   0  0  0  0  0  0  0  0  0  0  0  0
   11.5860  -15.5117   28.8780 C   0  0  0  0  0  0  0  0  0  0  0  0
   10.3574  -15.1613   28.3064 C   0  0  0  0  0  0  0  0  0  0  0  0
    9.6923  -15.9677   27.4104 C   0  0  0  0  0  0  0  0  0  0  0  0
    8.4705  -15.6002   26.8531 C   0  0  0  0  0  0  0  0  0  0  0  0
    7.8934  -14.3966   27.1962 C   0  0  0  0  0  0  0  0  0  0  0  0
    6.6172  -14.0247   26.5967 C   0  0  1  0  0  0  0  0  0  0  0  0
    6.6778  -12.8958   25.5995 N   0  0  0  0  0  0  0  0  0  0  0  0
    7.5274  -13.2692   24.4619 C   0  0  0  0  0  0  0  0  0  0  0  0
    7.2506  -11.6887   26.2149 O   0  0  0  0  0  0  0  0  0  0  0  0
    6.6052  -11.0134   27.2339 C   0  0  0  0  0  0  0  0  0  0  0  0
    8.5567  -13.5816   28.0964 C   0  0  0  0  0  0  0  0  0  0  0  0
    9.7506  -13.9645   28.6269 O   0  0  0  0  0  0  0  0  0  0  0  0
  2  3  2  0
  2  1  1  0
  4  2  1  0
  5  4  1  0
  6  7  1  0
  6  5  1  0
  8  9  1  1
  8  7  1  0
 10  8  1  0
 11 10  2  0
 12 13  1  0
 13 15  1  0
 14 13  2  0
 15 16  1  0
 17 16  1  6
 17 19  1  0
 17 18  1  0
 18 10  1  0
 19 28  1  0
 20 19  2  0
 22 21  1  0
 23 22  2  0
 24 23  1  0
 25 24  2  0
 25 31  1  0
 26 25  1  0
 27 28  1  0
 27 29  1  0
 27 26  1  6
 29 33  2  0
 29 30  1  0
 31 32  2  0
 32 22  1  0
M  END
$$$$
