RQY.pdb
     RDKit          3D

 33 33  0  0  1  0  0  0  0  0999 V2000
    8.1652  -12.2621   18.9851 N   0  0  0  0  0  0  0  0  0  0  0  0
    8.8197  -13.2931   19.7009 C   0  0  0  0  0  0  0  0  0  0  0  0
   10.1240  -13.3003   19.8375 N   0  0  0  0  0  0  0  0  0  0  0  0
    8.1236  -14.3641   20.3059 N   0  0  0  0  0  0  0  0  0  0  0  0
    6.6541  -14.3919   20.2250 C   0  0  0  0  0  0  0  0  0  0  0  0
    6.1111  -15.6098   20.8926 C   0  0  0  0  0  0  0  0  0  0  0  0
    6.7377  -16.9143   20.5488 C   0  0  0  0  0  0  0  0  0  0  0  0
    6.0935  -18.0687   21.2224 C   0  0  2  0  0  0  0  0  0  0  0  0
    4.8039  -18.4468   20.7048 N   0  0  0  0  0  0  0  0  0  0  0  0
    5.9207  -17.8193   22.6999 C   0  0  0  0  0  0  0  0  0  0  0  0
    4.7841  -17.5330   23.1383 O   0  0  0  0  0  0  0  0  0  0  0  0
   10.5498  -14.1297   20.3066 N   0  0  0  0  0  0  0  0  0  0  0  0
    6.4378  -21.5998   26.7945 C   0  0  0  0  0  0  0  0  0  0  0  0
    7.5969  -21.4914   25.9502 O   0  0  0  0  0  0  0  0  0  0  0  0
    8.3969  -22.4440   25.8829 C   0  0  0  0  0  0  0  0  0  0  0  0
    7.7542  -20.2341   25.2139 C   0  0  0  0  0  0  0  0  0  0  0  0
    6.6268  -19.2983   25.4491 C   0  0  1  0  0  0  0  0  0  0  0  0
    6.8569  -17.8576   25.0658 N   0  0  0  0  0  0  0  0  0  0  0  0
    6.9971  -17.8987   23.5971 C   0  0  0  0  0  0  0  0  0  0  0  0
    8.0736  -17.2538   25.6559 O   0  0  0  0  0  0  0  0  0  0  0  0
    9.2119  -17.5665   25.1476 O   0  0  0  0  0  0  0  0  0  0  0  0
    5.7074  -10.9468   24.6570 C   0  0  0  0  0  0  0  0  0  0  0  0
    6.5433  -11.7844   25.4045 C   0  0  0  0  0  0  0  0  0  0  0  0
    7.5938  -12.4805   24.8501 C   0  0  0  0  0  0  0  0  0  0  0  0
    8.4136  -13.3088   25.6119 C   0  0  0  0  0  0  0  0  0  0  0  0
    8.1825  -13.4493   26.9632 C   0  0  0  0  0  0  0  0  0  0  0  0
    9.0465  -14.3271   27.7437 C   0  0  2  0  0  0  0  0  0  0  0  0
    9.3728  -15.6502   27.0991 N   0  0  0  0  0  0  0  0  0  0  0  0
    8.1377  -16.3529   26.7304 C   0  0  0  0  0  0  0  0  0  0  0  0
   10.1226  -16.5101   28.0275 O   0  0  0  0  0  0  0  0  0  0  0  0
    9.6611  -17.7593   28.3984 C   0  0  0  0  0  0  0  0  0  0  0  0
    7.1284  -12.7521   27.5266 C   0  0  0  0  0  0  0  0  0  0  0  0
    6.3415  -11.9485   26.7593 O   0  0  0  0  0  0  0  0  0  0  0  0
  2  3  2  0
  2  1  1  0
  4  2  1  0
  5  4  1  0
  6  7  1  0
  6  5  1  0
  8  9  1  6
  8  7  1  0
 10  8  1  0
 11 10  2  0
 12 13  1  0
 13 15  1  0
 14 13  2  0
 15 16  1  0
 17 16  1  6
 17 19  1  0
 17 18  1  0
 18 10  1  0
 19 28  1  0
 20 19  2  0
 22 21  1  0
 23 22  2  0
 24 23  1  0
 25 24  2  0
 25 31  1  0
 26 25  1  0
 27 28  1  0
 27 29  1  0
 27 26  1  6
 29 33  2  0
 29 30  1  0
 31 32  2  0
 32 22  1  0
M  END
$$$$
