RQY.pdb
     RDKit          3D

 33 33  0  0  1  0  0  0  0  0999 V2000
    8.5914  -14.7415   15.3140 N   0  0  0  0  0  0  0  0  0  0  0  0
    8.1147  -13.4209   15.4937 C   0  0  0  0  0  0  0  0  0  0  0  0
    7.7268  -12.6958   14.4721 N   0  0  0  0  0  0  0  0  0  0  0  0
    8.0260  -12.8067   16.7636 N   0  0  0  0  0  0  0  0  0  0  0  0
    8.4333  -13.5725   17.9529 C   0  0  0  0  0  0  0  0  0  0  0  0
    7.3757  -14.5502   18.3395 C   0  0  0  0  0  0  0  0  0  0  0  0
    7.3144  -14.9612   19.7677 C   0  0  0  0  0  0  0  0  0  0  0  0
    8.6071  -14.8031   20.4785 C   0  0  2  0  0  0  0  0  0  0  0  0
    9.7846  -14.9934   19.6716 N   0  0  0  0  0  0  0  0  0  0  0  0
    8.7141  -15.7515   21.6466 C   0  0  0  0  0  0  0  0  0  0  0  0
    7.7177  -15.9203   22.3846 O   0  0  0  0  0  0  0  0  0  0  0  0
    7.4523  -11.7076   14.6655 N   0  0  0  0  0  0  0  0  0  0  0  0
   12.0979  -20.6139   21.5329 C   0  0  0  0  0  0  0  0  0  0  0  0
   12.0196  -20.6118   22.9689 O   0  0  0  0  0  0  0  0  0  0  0  0
   12.5754  -21.5212   23.6139 C   0  0  0  0  0  0  0  0  0  0  0  0
   11.2708  -19.5110   23.5813 C   0  0  0  0  0  0  0  0  0  0  0  0
   10.8144  -18.5144   22.5808 C   0  0  1  0  0  0  0  0  0  0  0  0
   10.0933  -17.3033   23.1180 N   0  0  0  0  0  0  0  0  0  0  0  0
    9.8981  -16.4499   21.9297 C   0  0  0  0  0  0  0  0  0  0  0  0
   10.8469  -16.5470   24.1442 O   0  0  0  0  0  0  0  0  0  0  0  0
   12.0654  -16.8860   24.3724 O   0  0  0  0  0  0  0  0  0  0  0  0
    5.9883  -10.4481   26.3700 C   0  0  0  0  0  0  0  0  0  0  0  0
    6.5709  -11.7197   26.3177 C   0  0  0  0  0  0  0  0  0  0  0  0
    7.9320  -11.9211   26.3638 C   0  0  0  0  0  0  0  0  0  0  0  0
    8.4914  -13.1949   26.3103 C   0  0  0  0  0  0  0  0  0  0  0  0
    7.6745  -14.3001   26.2079 C   0  0  0  0  0  0  0  0  0  0  0  0
    8.2783  -15.6259   26.1453 C   0  0  2  0  0  0  0  0  0  0  0  0
    9.7823  -15.6548   26.2448 N   0  0  0  0  0  0  0  0  0  0  0  0
   10.3819  -15.4718   24.9174 C   0  0  0  0  0  0  0  0  0  0  0  0
   10.2435  -16.9470   26.7752 O   0  0  0  0  0  0  0  0  0  0  0  0
   10.7254  -17.9445   25.9483 C   0  0  0  0  0  0  0  0  0  0  0  0
    6.3055  -14.1044   26.1613 C   0  0  0  0  0  0  0  0  0  0  0  0
    5.7838  -12.8480   26.2154 O   0  0  0  0  0  0  0  0  0  0  0  0
  2  3  2  0
  2  1  1  0
  4  2  1  0
  5  4  1  0
  6  7  1  0
  6  5  1  0
  8  9  1  6
  8  7  1  0
 10  8  1  0
 11 10  2  0
 12 13  1  0
 13 15  1  0
 14 13  2  0
 15 16  1  0
 17 16  1  6
 17 19  1  0
 17 18  1  0
 18 10  1  0
 19 28  1  0
 20 19  2  0
 22 21  1  0
 23 22  2  0
 24 23  1  0
 25 24  2  0
 25 31  1  0
 26 25  1  0
 27 28  1  0
 27 29  1  0
 27 26  1  1
 29 33  2  0
 29 30  1  0
 31 32  2  0
 32 22  1  0
M  END
$$$$
