RQY.pdb
     RDKit          3D

 33 33  0  0  1  0  0  0  0  0999 V2000
    9.3454  -13.4480   12.2214 N   0  0  0  0  0  0  0  0  0  0  0  0
    9.2165  -14.0555   13.4933 C   0  0  0  0  0  0  0  0  0  0  0  0
   10.1682  -14.8147   13.9811 N   0  0  0  0  0  0  0  0  0  0  0  0
    8.0742  -13.8869   14.3085 N   0  0  0  0  0  0  0  0  0  0  0  0
    7.9800  -14.6479   15.5651 C   0  0  0  0  0  0  0  0  0  0  0  0
    7.7942  -13.7303   16.7259 C   0  0  0  0  0  0  0  0  0  0  0  0
    7.5224  -14.3503   18.0503 C   0  0  0  0  0  0  0  0  0  0  0  0
    8.2960  -13.7329   19.1556 C   0  0  2  0  0  0  0  0  0  0  0  0
    9.3301  -12.8161   18.7508 N   0  0  0  0  0  0  0  0  0  0  0  0
    8.9486  -14.7794   20.0240 C   0  0  0  0  0  0  0  0  0  0  0  0
    8.3319  -15.8421   20.2611 O   0  0  0  0  0  0  0  0  0  0  0  0
    9.9855  -15.2786   14.8980 N   0  0  0  0  0  0  0  0  0  0  0  0
   14.2506  -13.8965   19.8738 C   0  0  0  0  0  0  0  0  0  0  0  0
   14.0649  -15.2396   19.3942 O   0  0  0  0  0  0  0  0  0  0  0  0
   14.8807  -15.7187   18.5837 C   0  0  0  0  0  0  0  0  0  0  0  0
   12.8981  -15.9619   19.9082 C   0  0  0  0  0  0  0  0  0  0  0  0
   12.3704  -15.3630   21.1593 C   0  0  2  0  0  0  0  0  0  0  0  0
   10.9045  -15.5783   21.4423 N   0  0  0  0  0  0  0  0  0  0  0  0
   10.2269  -14.5960   20.5737 C   0  0  0  0  0  0  0  0  0  0  0  0
   10.5110  -15.3391   22.8498 O   0  0  0  0  0  0  0  0  0  0  0  0
   10.3764  -14.1227   23.2422 O   0  0  0  0  0  0  0  0  0  0  0  0
    5.8929  -10.9166   26.7209 C   0  0  0  0  0  0  0  0  0  0  0  0
    6.4228  -12.0931   26.1785 C   0  0  0  0  0  0  0  0  0  0  0  0
    7.5791  -12.6770   26.6446 C   0  0  0  0  0  0  0  0  0  0  0  0
    8.0893  -13.8479   26.0906 C   0  0  0  0  0  0  0  0  0  0  0  0
    7.4314  -14.4558   25.0433 C   0  0  0  0  0  0  0  0  0  0  0  0
    7.9847  -15.6773   24.4705 C   0  0  2  0  0  0  0  0  0  0  0  0
    9.3554  -16.0596   24.9682 N   0  0  0  0  0  0  0  0  0  0  0  0
   10.2558  -16.3057   23.8351 C   0  0  0  0  0  0  0  0  0  0  0  0
    9.2923  -17.2902   25.7715 O   0  0  0  0  0  0  0  0  0  0  0  0
    9.0035  -17.2647   27.1232 C   0  0  0  0  0  0  0  0  0  0  0  0
    6.2685  -13.8740   24.5702 C   0  0  0  0  0  0  0  0  0  0  0  0
    5.7907  -12.7285   25.1298 O   0  0  0  0  0  0  0  0  0  0  0  0
  2  3  2  0
  2  1  1  0
  4  2  1  0
  5  4  1  0
  6  7  1  0
  6  5  1  0
  8  9  1  6
  8  7  1  0
 10  8  1  0
 11 10  2  0
 12 13  1  0
 13 15  1  0
 14 13  2  0
 15 16  1  0
 17 16  1  6
 17 19  1  0
 17 18  1  0
 18 10  1  0
 19 28  1  0
 20 19  2  0
 22 21  1  0
 23 22  2  0
 24 23  1  0
 25 24  2  0
 25 31  1  0
 26 25  1  0
 27 28  1  0
 27 29  1  0
 27 26  1  1
 29 33  2  0
 29 30  1  0
 31 32  2  0
 32 22  1  0
M  END
$$$$
