RQY.pdb
     RDKit          3D

 33 33  0  0  1  0  0  0  0  0999 V2000
    8.9179  -12.7538   17.3878 N   0  0  0  0  0  0  0  0  0  0  0  0
    8.0407  -13.0135   18.4679 C   0  0  0  0  0  0  0  0  0  0  0  0
    7.6783  -12.0588   19.2909 N   0  0  0  0  0  0  0  0  0  0  0  0
    7.5057  -14.2958   18.7267 N   0  0  0  0  0  0  0  0  0  0  0  0
    6.4202  -14.4268   19.7122 C   0  0  0  0  0  0  0  0  0  0  0  0
    6.5860  -15.6699   20.5191 C   0  0  0  0  0  0  0  0  0  0  0  0
    7.2121  -16.8409   19.8491 C   0  0  0  0  0  0  0  0  0  0  0  0
    7.1304  -18.0868   20.6506 C   0  0  2  0  0  0  0  0  0  0  0  0
    5.7981  -18.5419   20.9534 N   0  0  0  0  0  0  0  0  0  0  0  0
    7.8585  -17.9464   21.9642 C   0  0  0  0  0  0  0  0  0  0  0  0
    7.2734  -17.4023   22.9273 O   0  0  0  0  0  0  0  0  0  0  0  0
    7.0866  -12.3311   20.1063 N   0  0  0  0  0  0  0  0  0  0  0  0
   11.0929  -21.8571   24.3000 C   0  0  0  0  0  0  0  0  0  0  0  0
   11.9974  -20.9067   24.8890 O   0  0  0  0  0  0  0  0  0  0  0  0
   12.7387  -21.2649   25.8240 C   0  0  0  0  0  0  0  0  0  0  0  0
   11.9772  -19.5520   24.3306 C   0  0  0  0  0  0  0  0  0  0  0  0
   10.9993  -19.4133   23.2230 C   0  0  1  0  0  0  0  0  0  0  0  0
    9.8826  -18.4209   23.4315 N   0  0  0  0  0  0  0  0  0  0  0  0
    9.1725  -18.4080   22.1377 C   0  0  0  0  0  0  0  0  0  0  0  0
   10.3354  -17.0484   23.7541 O   0  0  0  0  0  0  0  0  0  0  0  0
   10.8000  -16.3243   22.7992 O   0  0  0  0  0  0  0  0  0  0  0  0
   10.1291  -17.2150   31.2760 C   0  0  0  0  0  0  0  0  0  0  0  0
   10.1187  -16.5274   30.0570 C   0  0  0  0  0  0  0  0  0  0  0  0
    9.2109  -16.7926   29.0565 C   0  0  0  0  0  0  0  0  0  0  0  0
    9.2178  -16.0966   27.8507 C   0  0  0  0  0  0  0  0  0  0  0  0
   10.1541  -15.1090   27.6331 C   0  0  0  0  0  0  0  0  0  0  0  0
   10.1512  -14.3959   26.3612 C   0  0  1  0  0  0  0  0  0  0  0  0
   10.8782  -15.0845   25.2342 N   0  0  0  0  0  0  0  0  0  0  0  0
   10.3152  -16.4216   25.0098 C   0  0  0  0  0  0  0  0  0  0  0  0
   12.3049  -15.2424   25.5555 O   0  0  0  0  0  0  0  0  0  0  0  0
   13.1553  -14.1567   25.6512 C   0  0  0  0  0  0  0  0  0  0  0  0
   11.0692  -14.8375   28.6347 C   0  0  0  0  0  0  0  0  0  0  0  0
   11.0409  -15.5328   29.8050 O   0  0  0  0  0  0  0  0  0  0  0  0
  2  3  2  0
  2  1  1  0
  4  2  1  0
  5  4  1  0
  6  7  1  0
  6  5  1  0
  8  9  1  1
  8  7  1  0
 10  8  1  0
 11 10  2  0
 12 13  1  0
 13 15  1  0
 14 13  2  0
 15 16  1  0
 17 16  1  1
 17 19  1  0
 17 18  1  0
 18 10  1  0
 19 28  1  0
 20 19  2  0
 22 21  1  0
 23 22  2  0
 24 23  1  0
 25 24  2  0
 25 31  1  0
 26 25  1  0
 27 28  1  0
 27 29  1  0
 27 26  1  6
 29 33  2  0
 29 30  1  0
 31 32  2  0
 32 22  1  0
M  END
$$$$
