SCK.pdb
     RDKit          3D

 22 21  0  0  1  0  0  0  0  0999 V2000
    7.3374  -17.3361   22.1592 O   0  0  0  0  0  0  0  0  0  0  0  0
    6.5568  -16.3307   21.6006 C   0  0  0  0  0  0  0  0  0  0  0  0
    7.4468  -15.1237   21.4099 C   0  0  2  0  0  0  0  0  0  0  0  0
    8.4476  -15.3410   20.4117 N   0  0  0  0  0  0  0  0  0  0  0  0
    8.0828  -14.7009   22.6807 C   0  0  0  0  0  0  0  0  0  0  0  0
    9.2661  -14.9997   22.9169 O   0  0  0  0  0  0  0  0  0  0  0  0
    7.3190  -13.9566   23.6095 N   0  0  0  0  0  0  0  0  0  0  0  0
    7.8411  -13.5206   24.8859 C   0  0  1  0  0  0  0  0  0  0  0  0
    6.8069  -12.5942   25.5072 C   0  0  0  0  0  0  0  0  0  0  0  0
    7.3328  -12.0969   27.1688 S   0  0  0  0  0  0  0  0  0  0  0  0
    8.0969  -14.6685   25.7805 C   0  0  0  0  0  0  0  0  0  0  0  0
    7.2524  -15.5874   25.9755 O   0  0  0  0  0  0  0  0  0  0  0  0
    9.3464  -14.7382   26.4480 N   0  0  0  0  0  0  0  0  0  0  0  0
    9.6689  -15.8006   27.3761 C   0  0  1  0  0  0  0  0  0  0  0  0
   10.6816  -16.7613   26.8215 C   0  0  0  0  0  0  0  0  0  0  0  0
   11.0149  -17.8697   27.7757 C   0  0  0  0  0  0  0  0  0  0  0  0
   12.0680  -18.8020   27.2168 C   0  0  0  0  0  0  0  0  0  0  0  0
   12.4187  -19.8732   28.2240 C   0  0  0  0  0  0  0  0  0  0  0  0
   13.3415  -20.8134   27.6023 N   0  0  0  0  0  0  0  0  0  0  0  0
   10.1791  -15.2068   28.6377 C   0  0  0  0  0  0  0  0  0  0  0  0
   10.4688  -13.9876   28.7287 O   0  0  0  0  0  0  0  0  0  0  0  0
   10.3519  -15.9952   29.7665 O   0  0  0  0  0  0  0  0  0  0  0  0
  1  2  1  0
  3  5  1  0
  3  2  1  0
  3  4  1  6
  5  6  2  0
  7  8  1  0
  7  5  1  0
  8 11  1  0
  8  9  1  1
 10  9  1  0
 11 13  1  0
 11 12  2  0
 13 14  1  0
 14 15  1  6
 15 16  1  0
 16 17  1  0
 17 18  1  0
 18 19  1  0
 20 22  1  0
 20 14  1  0
 21 20  2  0
M  END
$$$$
