SCK.pdb
     RDKit          3D

 22 21  0  0  1  0  0  0  0  0999 V2000
    8.5226  -15.1918   20.2558 O   0  0  0  0  0  0  0  0  0  0  0  0
    7.1672  -14.8834   20.2525 C   0  0  0  0  0  0  0  0  0  0  0  0
    7.0293  -13.4568   20.7332 C   0  0  2  0  0  0  0  0  0  0  0  0
    7.5047  -12.5124   19.7702 N   0  0  0  0  0  0  0  0  0  0  0  0
    7.7130  -13.2436   22.0314 C   0  0  0  0  0  0  0  0  0  0  0  0
    8.3200  -12.1812   22.2508 O   0  0  0  0  0  0  0  0  0  0  0  0
    7.6590  -14.2675   23.0054 N   0  0  0  0  0  0  0  0  0  0  0  0
    8.2399  -14.1302   24.3229 C   0  0  1  0  0  0  0  0  0  0  0  0
    7.6314  -12.8905   24.9606 C   0  0  0  0  0  0  0  0  0  0  0  0
    5.8899  -13.1880   25.3652 S   0  0  0  0  0  0  0  0  0  0  0  0
    7.9632  -15.3181   25.1570 C   0  0  0  0  0  0  0  0  0  0  0  0
    6.8290  -15.8720   25.2065 O   0  0  0  0  0  0  0  0  0  0  0  0
    9.0196  -15.8572   25.9348 N   0  0  0  0  0  0  0  0  0  0  0  0
    9.6360  -17.1294   25.6256 C   0  0  1  0  0  0  0  0  0  0  0  0
   10.3498  -17.1168   24.3042 C   0  0  0  0  0  0  0  0  0  0  0  0
   10.8737  -18.4670   23.9135 C   0  0  0  0  0  0  0  0  0  0  0  0
   11.6905  -18.4120   22.6405 C   0  0  0  0  0  0  0  0  0  0  0  0
   12.1285  -19.7991   22.2293 C   0  0  0  0  0  0  0  0  0  0  0  0
   12.9869  -19.6885   21.0575 N   0  0  0  0  0  0  0  0  0  0  0  0
   10.5892  -17.4843   26.7073 C   0  0  0  0  0  0  0  0  0  0  0  0
   11.2370  -16.6100   27.3353 O   0  0  0  0  0  0  0  0  0  0  0  0
   10.7924  -18.8114   27.0581 O   0  0  0  0  0  0  0  0  0  0  0  0
  1  2  1  0
  3  5  1  0
  3  2  1  0
  3  4  1  6
  5  6  2  0
  7  8  1  0
  7  5  1  0
  8 11  1  0
  8  9  1  1
 10  9  1  0
 11 13  1  0
 11 12  2  0
 13 14  1  0
 14 15  1  6
 15 16  1  0
 16 17  1  0
 17 18  1  0
 18 19  1  0
 20 22  1  0
 20 14  1  0
 21 20  2  0
M  END
$$$$
