SCK.pdb
     RDKit          3D

 22 21  0  0  1  0  0  0  0  0999 V2000
    7.1212  -16.2691   20.9865 O   0  0  0  0  0  0  0  0  0  0  0  0
    6.2019  -15.2290   20.9125 C   0  0  0  0  0  0  0  0  0  0  0  0
    6.9699  -13.9374   21.0776 C   0  0  2  0  0  0  0  0  0  0  0  0
    7.8765  -13.7043   19.9964 N   0  0  0  0  0  0  0  0  0  0  0  0
    7.6982  -13.8895   22.3681 C   0  0  0  0  0  0  0  0  0  0  0  0
    8.9022  -14.1944   22.4178 O   0  0  0  0  0  0  0  0  0  0  0  0
    6.9976  -13.4926   23.5307 N   0  0  0  0  0  0  0  0  0  0  0  0
    7.6051  -13.4645   24.8431 C   0  0  1  0  0  0  0  0  0  0  0  0
    6.6371  -12.7536   25.7765 C   0  0  0  0  0  0  0  0  0  0  0  0
    7.2696  -12.7871   27.4747 S   0  0  0  0  0  0  0  0  0  0  0  0
    7.8764  -14.8303   25.3373 C   0  0  0  0  0  0  0  0  0  0  0  0
    7.0213  -15.7589   25.2906 O   0  0  0  0  0  0  0  0  0  0  0  0
    9.1539  -15.1072   25.8878 N   0  0  0  0  0  0  0  0  0  0  0  0
    9.5086  -16.4135   26.3994 C   0  0  1  0  0  0  0  0  0  0  0  0
   10.5404  -17.1022   25.5526 C   0  0  0  0  0  0  0  0  0  0  0  0
   10.9145  -18.4563   26.0784 C   0  0  0  0  0  0  0  0  0  0  0  0
   11.9383  -19.1430   25.2004 C   0  0  0  0  0  0  0  0  0  0  0  0
   12.2219  -20.5390   25.7061 C   0  0  0  0  0  0  0  0  0  0  0  0
   13.2307  -21.1487   24.8501 N   0  0  0  0  0  0  0  0  0  0  0  0
   10.0132  -16.2718   27.7886 C   0  0  0  0  0  0  0  0  0  0  0  0
   10.4559  -15.1806   28.2267 O   0  0  0  0  0  0  0  0  0  0  0  0
   10.0088  -17.3577   28.6525 O   0  0  0  0  0  0  0  0  0  0  0  0
  1  2  1  0
  3  5  1  0
  3  2  1  0
  3  4  1  6
  5  6  2  0
  7  8  1  0
  7  5  1  0
  8 11  1  0
  8  9  1  1
 10  9  1  0
 11 13  1  0
 11 12  2  0
 13 14  1  0
 14 15  1  6
 15 16  1  0
 16 17  1  0
 17 18  1  0
 18 19  1  0
 20 22  1  0
 20 14  1  0
 21 20  2  0
M  END
$$$$
