SCK.pdb
     RDKit          3D

 22 21  0  0  1  0  0  0  0  0999 V2000
   -1.2951  -24.9165   23.3338 O   0  0  0  0  0  0  0  0  0  0  0  0
   -1.2382  -23.9684   22.3188 C   0  0  0  0  0  0  0  0  0  0  0  0
   -0.5964  -22.7280   22.8974 C   0  0  2  0  0  0  0  0  0  0  0  0
    0.7532  -22.9589   23.3104 N   0  0  0  0  0  0  0  0  0  0  0  0
   -1.3833  -22.1746   24.0255 C   0  0  0  0  0  0  0  0  0  0  0  0
   -0.9747  -22.2993   25.1928 O   0  0  0  0  0  0  0  0  0  0  0  0
   -2.5985  -21.5076   23.7452 N   0  0  0  0  0  0  0  0  0  0  0  0
   -3.4914  -21.0337   24.7796 C   0  0  1  0  0  0  0  0  0  0  0  0
   -4.2660  -19.8565   24.2067 C   0  0  0  0  0  0  0  0  0  0  0  0
   -5.4056  -19.1947   25.4509 S   0  0  0  0  0  0  0  0  0  0  0  0
   -4.4253  -22.0952   25.2091 C   0  0  0  0  0  0  0  0  0  0  0  0
   -5.0359  -22.8423   24.3939 O   0  0  0  0  0  0  0  0  0  0  0  0
   -4.6433  -22.2804   26.5983 N   0  0  0  0  0  0  0  0  0  0  0  0
   -5.5462  -23.2881   27.1116 C   0  0  1  0  0  0  0  0  0  0  0  0
   -5.1658  -23.7542   28.4877 C   0  0  0  0  0  0  0  0  0  0  0  0
   -6.0716  -24.8307   29.0081 C   0  0  0  0  0  0  0  0  0  0  0  0
   -5.6409  -25.3242   30.3725 C   0  0  0  0  0  0  0  0  0  0  0  0
   -6.5716  -26.4092   30.8638 C   0  0  0  0  0  0  0  0  0  0  0  0
   -6.1048  -26.8699   32.1646 N   0  0  0  0  0  0  0  0  0  0  0  0
   -6.9263  -22.7408   27.1310 C   0  0  0  0  0  0  0  0  0  0  0  0
   -7.1548  -21.5213   27.3295 O   0  0  0  0  0  0  0  0  0  0  0  0
   -8.0165  -23.5748   26.9273 O   0  0  0  0  0  0  0  0  0  0  0  0
  1  2  1  0
  3  5  1  0
  3  2  1  0
  3  4  1  1
  5  6  2  0
  7  8  1  0
  7  5  1  0
  8 11  1  0
  8  9  1  6
 10  9  1  0
 11 13  1  0
 11 12  2  0
 13 14  1  0
 14 15  1  1
 15 16  1  0
 16 17  1  0
 17 18  1  0
 18 19  1  0
 20 22  1  0
 20 14  1  0
 21 20  2  0
M  END
$$$$
