ESV.pdb
     RDKit          3D

 23 22  0  0  1  0  0  0  0  0999 V2000
   24.3880  -20.5396  -16.1749 N   0  0  0  0  0  0  0  0  0  0  0  0
   23.4665  -19.5829  -15.5976 C   0  0  1  0  0  0  0  0  0  0  0  0
   22.7719  -18.8659  -16.7209 C   0  0  0  0  0  0  0  0  0  0  0  0
   23.2742  -17.4990  -17.0163 C   0  0  0  0  0  0  0  0  0  0  0  0
   23.9068  -17.3742  -18.3254 C   0  0  0  0  0  0  0  0  0  0  0  0
   25.1310  -17.3032  -18.4500 O   0  0  0  0  0  0  0  0  0  0  0  0
   22.4039  -20.2531  -14.8034 C   0  0  0  0  0  0  0  0  0  0  0  0
   21.9097  -21.3028  -15.2848 O   0  0  0  0  0  0  0  0  0  0  0  0
   23.0566  -17.3380  -19.4485 O   0  0  0  0  0  0  0  0  0  0  0  0
   20.0996  -20.7529  -10.5869 O   0  0  0  0  0  0  0  0  0  0  0  0
   21.0100  -20.0571  -11.3751 C   0  0  0  0  0  0  0  0  0  0  0  0
   20.9332  -20.4518  -12.8347 C   0  0  2  0  0  0  0  0  0  0  0  0
   21.9473  -19.7527  -13.5536 N   0  0  0  0  0  0  0  0  0  0  0  0
   19.5735  -20.2551  -13.3927 C   0  0  0  0  0  0  0  0  0  0  0  0
   19.2611  -19.1040  -13.7932 O   0  0  0  0  0  0  0  0  0  0  0  0
   17.0801  -23.4909  -14.4626 C   0  0  0  0  0  0  0  0  0  0  0  0
   16.9550  -22.1207  -15.1109 C   0  0  2  0  0  0  0  0  0  0  0  0
   18.0091  -22.0348  -16.1893 C   0  0  0  0  0  0  0  0  0  0  0  0
   17.2826  -21.1006  -14.0483 C   0  0  2  0  0  0  0  0  0  0  0  0
   18.6052  -21.2710  -13.5052 N   0  0  0  0  0  0  0  0  0  0  0  0
   16.3116  -21.1747  -12.9119 C   0  0  0  0  0  0  0  0  0  0  0  0
   16.7023  -21.6094  -11.6431 O   0  0  0  0  0  0  0  0  0  0  0  0
   15.1004  -20.8525  -13.0352 O   0  0  0  0  0  0  0  0  0  0  0  0
  2  1  1  6
  2  7  1  0
  3  2  1  0
  4  3  1  0
  5  6  2  0
  5  4  1  0
  7 13  1  0
  8  7  2  0
  9  5  1  0
 10 11  1  0
 12 11  1  1
 12 14  1  0
 13 12  1  0
 14 20  1  0
 14 15  2  0
 17 16  1  1
 17 18  1  0
 19 17  1  0
 19 20  1  1
 21 19  1  0
 21 22  1  0
 23 21  2  0
M  END
$$$$
