ESV.pdb
     RDKit          3D

 23 22  0  0  1  0  0  0  0  0999 V2000
   17.8084  -11.6350  -14.3005 N   0  0  0  0  0  0  0  0  0  0  0  0
   16.7062  -10.7086  -14.1442 C   0  0  1  0  0  0  0  0  0  0  0  0
   15.5306  -11.4681  -13.5970 C   0  0  0  0  0  0  0  0  0  0  0  0
   15.0012  -12.5467  -14.4714 C   0  0  0  0  0  0  0  0  0  0  0  0
   13.8046  -13.1963  -13.9464 C   0  0  0  0  0  0  0  0  0  0  0  0
   13.2357  -14.1012  -14.5601 O   0  0  0  0  0  0  0  0  0  0  0  0
   17.0185   -9.6440  -13.1552 C   0  0  0  0  0  0  0  0  0  0  0  0
   17.7076   -9.9767  -12.1590 O   0  0  0  0  0  0  0  0  0  0  0  0
   13.3225  -12.7447  -12.7018 O   0  0  0  0  0  0  0  0  0  0  0  0
   18.1025   -5.2066  -12.1657 O   0  0  0  0  0  0  0  0  0  0  0  0
   17.6924   -6.2068  -13.0408 C   0  0  0  0  0  0  0  0  0  0  0  0
   16.9421   -7.3189  -12.3390 C   0  0  2  0  0  0  0  0  0  0  0  0
   16.5717   -8.3025  -13.3030 N   0  0  0  0  0  0  0  0  0  0  0  0
   15.7958   -6.8049  -11.5513 C   0  0  0  0  0  0  0  0  0  0  0  0
   14.6914   -6.6671  -12.1381 O   0  0  0  0  0  0  0  0  0  0  0  0
   15.7372   -6.7610   -7.3614 C   0  0  0  0  0  0  0  0  0  0  0  0
   14.4602   -6.6968   -8.1851 C   0  0  2  0  0  0  0  0  0  0  0  0
   14.1256   -8.1077   -8.6078 C   0  0  0  0  0  0  0  0  0  0  0  0
   14.7765   -5.8953   -9.4238 C   0  0  2  0  0  0  0  0  0  0  0  0
   15.8587   -6.4595  -10.1879 N   0  0  0  0  0  0  0  0  0  0  0  0
   15.1510   -4.4889   -9.0752 C   0  0  0  0  0  0  0  0  0  0  0  0
   14.2203   -3.5955   -8.5395 O   0  0  0  0  0  0  0  0  0  0  0  0
   16.3145   -4.0373   -9.2437 O   0  0  0  0  0  0  0  0  0  0  0  0
  2  1  1  1
  2  7  1  0
  3  2  1  0
  4  3  1  0
  5  6  2  0
  5  4  1  0
  7 13  1  0
  8  7  2  0
  9  5  1  0
 10 11  1  0
 12 11  1  6
 12 14  1  0
 13 12  1  0
 14 20  1  0
 14 15  2  0
 17 16  1  1
 17 18  1  0
 19 17  1  0
 19 20  1  1
 21 19  1  0
 21 22  1  0
 23 21  2  0
M  END
$$$$
