ESV.pdb
     RDKit          3D

 23 22  0  0  1  0  0  0  0  0999 V2000
   21.2817  -15.7928  -17.6838 N   0  0  0  0  0  0  0  0  0  0  0  0
   22.0827  -14.6471  -18.0625 C   0  0  1  0  0  0  0  0  0  0  0  0
   21.4793  -14.0426  -19.2990 C   0  0  0  0  0  0  0  0  0  0  0  0
   21.4907  -14.9082  -20.5066 C   0  0  0  0  0  0  0  0  0  0  0  0
   20.9496  -14.2631  -21.6986 C   0  0  0  0  0  0  0  0  0  0  0  0
   19.8515  -14.5754  -22.1631 O   0  0  0  0  0  0  0  0  0  0  0  0
   22.0568  -13.5888  -17.0193 C   0  0  0  0  0  0  0  0  0  0  0  0
   21.0263  -13.5191  -16.3044 O   0  0  0  0  0  0  0  0  0  0  0  0
   21.7380  -13.2626  -22.3011 O   0  0  0  0  0  0  0  0  0  0  0  0
   25.3589  -11.0882  -16.1072 O   0  0  0  0  0  0  0  0  0  0  0  0
   24.3894  -11.4674  -15.1849 C   0  0  0  0  0  0  0  0  0  0  0  0
   23.0303  -11.6664  -15.8214 C   0  0  2  0  0  0  0  0  0  0  0  0
   23.1335  -12.6830  -16.8164 N   0  0  0  0  0  0  0  0  0  0  0  0
   22.4655  -10.3950  -16.3346 C   0  0  0  0  0  0  0  0  0  0  0  0
   22.6432  -10.1183  -17.5490 O   0  0  0  0  0  0  0  0  0  0  0  0
   19.3539   -6.9882  -17.0172 C   0  0  0  0  0  0  0  0  0  0  0  0
   19.8378   -8.3835  -16.6531 C   0  0  2  0  0  0  0  0  0  0  0  0
   18.8977   -8.9264  -15.6031 C   0  0  0  0  0  0  0  0  0  0  0  0
   21.2026   -8.2260  -16.0290 C   0  0  2  0  0  0  0  0  0  0  0  0
   21.7420   -9.4736  -15.5537 N   0  0  0  0  0  0  0  0  0  0  0  0
   21.1602   -7.2785  -14.8714 C   0  0  0  0  0  0  0  0  0  0  0  0
   21.1931   -7.7346  -13.5513 O   0  0  0  0  0  0  0  0  0  0  0  0
   21.0933   -6.0299  -15.0215 O   0  0  0  0  0  0  0  0  0  0  0  0
  2  1  1  1
  2  7  1  0
  3  2  1  0
  4  3  1  0
  5  6  2  0
  5  4  1  0
  7 13  1  0
  8  7  2  0
  9  5  1  0
 10 11  1  0
 12 11  1  6
 12 14  1  0
 13 12  1  0
 14 20  1  0
 14 15  2  0
 17 16  1  1
 17 18  1  0
 19 17  1  0
 19 20  1  1
 21 19  1  0
 21 22  1  0
 23 21  2  0
M  END
$$$$
