ESV.pdb
     RDKit          3D

 23 22  0  0  1  0  0  0  0  0999 V2000
   19.1237  -13.5360  -16.6009 N   0  0  0  0  0  0  0  0  0  0  0  0
   18.7092  -12.1551  -16.7385 C   0  0  1  0  0  0  0  0  0  0  0  0
   17.5296  -11.9285  -15.8355 C   0  0  0  0  0  0  0  0  0  0  0  0
   16.2766  -12.6219  -16.2320 C   0  0  0  0  0  0  0  0  0  0  0  0
   15.1940  -12.4814  -15.2634 C   0  0  0  0  0  0  0  0  0  0  0  0
   15.3443  -11.8628  -14.2080 O   0  0  0  0  0  0  0  0  0  0  0  0
   19.7701  -11.2152  -16.2911 C   0  0  0  0  0  0  0  0  0  0  0  0
   20.3642  -11.4950  -15.2203 O   0  0  0  0  0  0  0  0  0  0  0  0
   13.9623  -13.0853  -15.5851 O   0  0  0  0  0  0  0  0  0  0  0  0
   21.4055   -8.0488  -18.6582 O   0  0  0  0  0  0  0  0  0  0  0  0
   22.0571   -8.8261  -17.7064 C   0  0  0  0  0  0  0  0  0  0  0  0
   21.1586   -9.1938  -16.5448 C   0  0  2  0  0  0  0  0  0  0  0  0
   20.1183  -10.0457  -17.0204 N   0  0  0  0  0  0  0  0  0  0  0  0
   20.6579   -7.9959  -15.8286 C   0  0  0  0  0  0  0  0  0  0  0  0
   19.5513   -7.5150  -16.1854 O   0  0  0  0  0  0  0  0  0  0  0  0
   22.0949   -6.7717  -12.0821 C   0  0  0  0  0  0  0  0  0  0  0  0
   20.7417   -6.3365  -12.6232 C   0  0  2  0  0  0  0  0  0  0  0  0
   19.7756   -7.4732  -12.3870 C   0  0  0  0  0  0  0  0  0  0  0  0
   20.9021   -6.1551  -14.1126 C   0  0  2  0  0  0  0  0  0  0  0  0
   21.3379   -7.3577  -14.7738 N   0  0  0  0  0  0  0  0  0  0  0  0
   21.8972   -5.0807  -14.4210 C   0  0  0  0  0  0  0  0  0  0  0  0
   23.1005   -5.3631  -15.0719 O   0  0  0  0  0  0  0  0  0  0  0  0
   21.7069   -3.8742  -14.1139 O   0  0  0  0  0  0  0  0  0  0  0  0
  2  1  1  1
  2  7  1  0
  3  2  1  0
  4  3  1  0
  5  6  2  0
  5  4  1  0
  7 13  1  0
  8  7  2  0
  9  5  1  0
 10 11  1  0
 12 11  1  6
 12 14  1  0
 13 12  1  0
 14 20  1  0
 14 15  2  0
 17 16  1  1
 17 18  1  0
 19 17  1  0
 19 20  1  6
 21 19  1  0
 21 22  1  0
 23 21  2  0
M  END
$$$$
