ESV.pdb
     RDKit          3D

 23 22  0  0  1  0  0  0  0  0999 V2000
   22.3540  -12.8560  -18.2459 N   0  0  0  0  0  0  0  0  0  0  0  0
   22.0920  -11.5354  -18.7798 C   0  0  1  0  0  0  0  0  0  0  0  0
   20.6036  -11.3653  -18.8976 C   0  0  0  0  0  0  0  0  0  0  0  0
   19.9364  -12.2357  -19.9002 C   0  0  0  0  0  0  0  0  0  0  0  0
   19.5212  -13.5312  -19.3721 C   0  0  0  0  0  0  0  0  0  0  0  0
   18.8309  -13.6259  -18.3554 O   0  0  0  0  0  0  0  0  0  0  0  0
   22.5679  -10.4670  -17.8627 C   0  0  0  0  0  0  0  0  0  0  0  0
   22.1244  -10.4860  -16.6876 O   0  0  0  0  0  0  0  0  0  0  0  0
   19.9438  -14.6767  -20.0754 O   0  0  0  0  0  0  0  0  0  0  0  0
   25.9002   -7.1549  -16.8272 O   0  0  0  0  0  0  0  0  0  0  0  0
   25.3640   -8.0954  -17.7004 C   0  0  0  0  0  0  0  0  0  0  0  0
   23.9570   -8.5040  -17.3192 C   0  0  2  0  0  0  0  0  0  0  0  0
   23.4824   -9.4570  -18.2682 N   0  0  0  0  0  0  0  0  0  0  0  0
   23.0614   -7.3327  -17.1621 C   0  0  0  0  0  0  0  0  0  0  0  0
   22.5957   -6.8024  -18.2037 O   0  0  0  0  0  0  0  0  0  0  0  0
   19.5804   -4.7100  -15.6560 C   0  0  0  0  0  0  0  0  0  0  0  0
   20.3731   -5.9781  -15.9332 C   0  0  2  0  0  0  0  0  0  0  0  0
   19.9912   -6.9879  -14.8771 C   0  0  0  0  0  0  0  0  0  0  0  0
   21.8309   -5.6332  -15.7514 C   0  0  2  0  0  0  0  0  0  0  0  0
   22.6955   -6.7715  -15.9237 N   0  0  0  0  0  0  0  0  0  0  0  0
   22.0861   -5.0707  -14.3883 C   0  0  0  0  0  0  0  0  0  0  0  0
   22.8184   -5.7768  -13.4310 O   0  0  0  0  0  0  0  0  0  0  0  0
   21.6591   -3.9407  -14.0321 O   0  0  0  0  0  0  0  0  0  0  0  0
  2  1  1  1
  2  7  1  0
  3  2  1  0
  4  3  1  0
  5  6  2  0
  5  4  1  0
  7 13  1  0
  8  7  2  0
  9  5  1  0
 10 11  1  0
 12 11  1  6
 12 14  1  0
 13 12  1  0
 14 20  1  0
 14 15  2  0
 17 16  1  1
 17 18  1  0
 19 17  1  0
 19 20  1  1
 21 19  1  0
 21 22  1  0
 23 21  2  0
M  END
$$$$
