ESV.pdb
     RDKit          3D

 23 22  0  0  1  0  0  0  0  0999 V2000
   43.4959  -10.7487   -6.8858 N   0  0  0  0  0  0  0  0  0  0  0  0
   43.5796  -11.4588   -8.1454 C   0  0  1  0  0  0  0  0  0  0  0  0
   44.6305  -10.7934   -8.9886 C   0  0  0  0  0  0  0  0  0  0  0  0
   44.5397   -9.3128   -9.0755 C   0  0  0  0  0  0  0  0  0  0  0  0
   45.4632   -8.7217  -10.0386 C   0  0  0  0  0  0  0  0  0  0  0  0
   45.0689   -7.9985  -10.9555 O   0  0  0  0  0  0  0  0  0  0  0  0
   44.0190  -12.8658   -7.9555 C   0  0  0  0  0  0  0  0  0  0  0  0
   44.8098  -13.0922   -7.0062 O   0  0  0  0  0  0  0  0  0  0  0  0
   46.8324   -9.0128   -9.8772 O   0  0  0  0  0  0  0  0  0  0  0  0
   43.3124  -15.8476  -10.8012 O   0  0  0  0  0  0  0  0  0  0  0  0
   43.2956  -16.2066   -9.4576 C   0  0  0  0  0  0  0  0  0  0  0  0
   44.0835  -15.2469   -8.5914 C   0  0  2  0  0  0  0  0  0  0  0  0
   43.5814  -13.9275   -8.7936 N   0  0  0  0  0  0  0  0  0  0  0  0
   45.5440  -15.3630   -8.8202 C   0  0  0  0  0  0  0  0  0  0  0  0
   46.0679  -14.6096   -9.6810 O   0  0  0  0  0  0  0  0  0  0  0  0
   48.1603  -16.9815   -6.0691 C   0  0  0  0  0  0  0  0  0  0  0  0
   48.6655  -16.1439   -7.2338 C   0  0  2  0  0  0  0  0  0  0  0  0
   48.4595  -14.6931   -6.8678 C   0  0  0  0  0  0  0  0  0  0  0  0
   47.7853  -16.4617   -8.4175 C   0  0  2  0  0  0  0  0  0  0  0  0
   46.3871  -16.2611   -8.1383 N   0  0  0  0  0  0  0  0  0  0  0  0
   47.9622  -17.8818   -8.8554 C   0  0  0  0  0  0  0  0  0  0  0  0
   49.1175  -18.3046   -9.5172 O   0  0  0  0  0  0  0  0  0  0  0  0
   47.0882  -18.7657   -8.6534 O   0  0  0  0  0  0  0  0  0  0  0  0
  2  1  1  1
  2  7  1  0
  3  2  1  0
  4  3  1  0
  5  6  2  0
  5  4  1  0
  7 13  1  0
  8  7  2  0
  9  5  1  0
 10 11  1  0
 12 11  1  6
 12 14  1  0
 13 12  1  0
 14 20  1  0
 14 15  2  0
 17 16  1  1
 17 18  1  0
 19 17  1  0
 19 20  1  1
 21 19  1  0
 21 22  1  0
 23 21  2  0
M  END
$$$$
