GNF.pdb
     RDKit          3D

 24 24  0  0  1  0  0  0  0  0999 V2000
   27.6268  -22.0259  -15.5482 N   0  0  0  0  0  0  0  0  0  0  0  0
   27.1334  -21.0243  -14.6476 C   0  0  0  0  0  0  0  0  0  0  0  0
   25.9793  -21.4629  -13.8219 C   0  0  0  0  0  0  0  0  0  0  0  0
   25.4205  -22.5576  -14.1150 O   0  0  0  0  0  0  0  0  0  0  0  0
   26.5069  -21.9407  -10.4858 N   0  0  0  0  0  0  0  0  0  0  0  0
   25.6454  -20.9867   -9.8613 C   0  0  0  0  0  0  0  0  0  0  0  0
   25.9055  -20.6000   -8.6733 O   0  0  0  0  0  0  0  0  0  0  0  0
   24.4657  -20.4516  -10.5766 C   0  0  0  0  0  0  0  0  0  0  0  0
   24.4072  -20.9689  -11.9733 C   0  0  2  0  0  0  0  0  0  0  0  0
   25.5701  -20.6300  -12.7511 N   0  0  0  0  0  0  0  0  0  0  0  0
   23.1433  -20.5370  -12.6123 C   0  0  0  0  0  0  0  0  0  0  0  0
   22.9714  -19.2900  -12.8407 O   0  0  0  0  0  0  0  0  0  0  0  0
   22.1605  -21.4914  -12.9555 N   0  0  0  0  0  0  0  0  0  0  0  0
   20.9149  -21.0026  -13.5549 C   0  0  1  0  0  0  0  0  0  0  0  0
   20.7020  -21.6058  -14.9028 C   0  0  0  0  0  0  0  0  0  0  0  0
   21.6116  -21.0159  -15.8918 C   0  0  0  0  0  0  0  0  0  0  0  0
   21.2549  -19.8685  -16.5866 C   0  0  0  0  0  0  0  0  0  0  0  0
   22.1088  -19.2879  -17.5001 C   0  0  0  0  0  0  0  0  0  0  0  0
   23.3623  -19.8331  -17.7580 C   0  0  0  0  0  0  0  0  0  0  0  0
   23.7201  -20.9667  -17.0736 C   0  0  0  0  0  0  0  0  0  0  0  0
   22.8536  -21.5442  -16.1558 C   0  0  0  0  0  0  0  0  0  0  0  0
   19.8315  -21.3735  -12.6323 C   0  0  0  0  0  0  0  0  0  0  0  0
   20.0363  -22.1643  -11.5299 O   0  0  0  0  0  0  0  0  0  0  0  0
   18.6634  -20.9659  -12.8358 O   0  0  0  0  0  0  0  0  0  0  0  0
  2  1  1  0
  3  2  1  0
  4  3  2  0
  6  5  1  0
  7  6  2  0
  9  8  1  1
  8  6  1  0
  9 10  1  0
 10  3  1  0
 11  9  1  0
 11 12  2  0
 13 11  1  0
 14 13  1  0
 14 15  1  6
 16 21  2  0
 16 15  1  0
 17 16  1  0
 18 19  1  0
 18 17  2  0
 19 20  2  0
 20 21  1  0
 22 14  1  0
 23 22  1  0
 24 22  2  0
M  END
$$$$
