GNF.pdb
     RDKit          3D

 24 24  0  0  1  0  0  0  0  0999 V2000
   14.5047  -13.6174    4.7129 N   0  0  0  0  0  0  0  0  0  0  0  0
   14.8370  -14.7705    3.9272 C   0  0  0  0  0  0  0  0  0  0  0  0
   15.5117  -15.8527    4.6886 C   0  0  0  0  0  0  0  0  0  0  0  0
   15.7855  -15.6426    5.9042 O   0  0  0  0  0  0  0  0  0  0  0  0
   14.6612  -20.4789    2.4090 N   0  0  0  0  0  0  0  0  0  0  0  0
   15.0078  -19.9054    3.6712 C   0  0  0  0  0  0  0  0  0  0  0  0
   14.1107  -19.8012    4.5727 O   0  0  0  0  0  0  0  0  0  0  0  0
   16.3860  -19.4357    3.9350 C   0  0  0  0  0  0  0  0  0  0  0  0
   16.3783  -18.1723    4.7259 C   0  0  2  0  0  0  0  0  0  0  0  0
   15.8094  -17.0605    4.0101 N   0  0  0  0  0  0  0  0  0  0  0  0
   17.7413  -17.8925    5.2318 C   0  0  0  0  0  0  0  0  0  0  0  0
   18.6171  -17.4509    4.4104 O   0  0  0  0  0  0  0  0  0  0  0  0
   18.0516  -18.1132    6.5918 N   0  0  0  0  0  0  0  0  0  0  0  0
   19.4057  -17.7805    7.0453 C   0  0  1  0  0  0  0  0  0  0  0  0
   19.3709  -16.6987    8.0721 C   0  0  0  0  0  0  0  0  0  0  0  0
   20.7224  -16.3832    8.5488 C   0  0  0  0  0  0  0  0  0  0  0  0
   21.5687  -15.5793    7.7979 C   0  0  0  0  0  0  0  0  0  0  0  0
   22.8317  -15.2530    8.2440 C   0  0  0  0  0  0  0  0  0  0  0  0
   23.3037  -15.7191    9.4668 C   0  0  0  0  0  0  0  0  0  0  0  0
   22.4710  -16.5135   10.2132 C   0  0  0  0  0  0  0  0  0  0  0  0
   21.2010  -16.8367    9.7557 C   0  0  0  0  0  0  0  0  0  0  0  0
   19.9784  -19.0168    7.5985 C   0  0  0  0  0  0  0  0  0  0  0  0
   19.2047  -20.0199    8.1254 O   0  0  0  0  0  0  0  0  0  0  0  0
   21.2203  -19.1890    7.6029 O   0  0  0  0  0  0  0  0  0  0  0  0
  2  1  1  0
  3  2  1  0
  4  3  2  0
  6  5  1  0
  7  6  2  0
  9  8  1  6
  8  6  1  0
  9 10  1  0
 10  3  1  0
 11  9  1  0
 11 12  2  0
 13 11  1  0
 14 13  1  0
 14 15  1  1
 16 21  2  0
 16 15  1  0
 17 16  1  0
 18 19  1  0
 18 17  2  0
 19 20  2  0
 20 21  1  0
 22 14  1  0
 23 22  1  0
 24 22  2  0
M  END
$$$$
