GNF.pdb
     RDKit          3D

 24 24  0  0  1  0  0  0  0  0999 V2000
   28.4634  -20.9765  -15.9097 N   0  0  0  0  0  0  0  0  0  0  0  0
   27.6714  -21.7396  -14.9888 C   0  0  0  0  0  0  0  0  0  0  0  0
   27.2138  -20.9755  -13.8002 C   0  0  0  0  0  0  0  0  0  0  0  0
   27.9941  -20.1084  -13.3144 O   0  0  0  0  0  0  0  0  0  0  0  0
   23.6829  -18.4356  -13.5335 N   0  0  0  0  0  0  0  0  0  0  0  0
   23.4475  -19.8211  -13.2741 C   0  0  0  0  0  0  0  0  0  0  0  0
   22.7753  -20.5046  -14.1164 O   0  0  0  0  0  0  0  0  0  0  0  0
   23.9724  -20.4601  -12.0470 C   0  0  0  0  0  0  0  0  0  0  0  0
   25.4572  -20.5805  -12.0999 C   0  0  2  0  0  0  0  0  0  0  0  0
   25.9278  -21.2606  -13.2781 N   0  0  0  0  0  0  0  0  0  0  0  0
   25.9525  -21.1939  -10.8467 C   0  0  0  0  0  0  0  0  0  0  0  0
   25.9811  -22.4702  -10.7630 O   0  0  0  0  0  0  0  0  0  0  0  0
   26.3798  -20.3755   -9.7779 N   0  0  0  0  0  0  0  0  0  0  0  0
   26.8197  -21.0372   -8.5456 C   0  0  1  0  0  0  0  0  0  0  0  0
   28.1995  -20.6072   -8.1755 C   0  0  0  0  0  0  0  0  0  0  0  0
   28.2607  -20.1912   -6.7695 C   0  0  0  0  0  0  0  0  0  0  0  0
   27.9255  -18.8963   -6.3987 C   0  0  0  0  0  0  0  0  0  0  0  0
   27.9533  -18.4976   -5.0793 C   0  0  0  0  0  0  0  0  0  0  0  0
   28.3189  -19.3822   -4.0698 C   0  0  0  0  0  0  0  0  0  0  0  0
   28.6505  -20.6633   -4.4307 C   0  0  0  0  0  0  0  0  0  0  0  0
   28.6196  -21.0555   -5.7619 C   0  0  0  0  0  0  0  0  0  0  0  0
   25.8521  -20.6666   -7.5020 C   0  0  0  0  0  0  0  0  0  0  0  0
   25.6827  -21.4007   -6.3553 O   0  0  0  0  0  0  0  0  0  0  0  0
   25.1392  -19.6443   -7.6382 O   0  0  0  0  0  0  0  0  0  0  0  0
  2  1  1  0
  3  2  1  0
  4  3  2  0
  6  5  1  0
  7  6  2  0
  9  8  1  1
  8  6  1  0
  9 10  1  0
 10  3  1  0
 11  9  1  0
 11 12  2  0
 13 11  1  0
 14 13  1  0
 14 15  1  1
 16 21  2  0
 16 15  1  0
 17 16  1  0
 18 19  1  0
 18 17  2  0
 19 20  2  0
 20 21  1  0
 22 14  1  0
 23 22  1  0
 24 22  2  0
M  END
$$$$
