GNF.pdb
     RDKit          3D

 24 24  0  0  1  0  0  0  0  0999 V2000
   12.4947  -12.2042  -15.2060 N   0  0  0  0  0  0  0  0  0  0  0  0
   13.3964  -11.4723  -14.3640 C   0  0  0  0  0  0  0  0  0  0  0  0
   14.5087  -10.8104  -15.0925 C   0  0  0  0  0  0  0  0  0  0  0  0
   15.6631  -11.3158  -15.0011 O   0  0  0  0  0  0  0  0  0  0  0  0
   15.7086   -6.4941  -19.3129 N   0  0  0  0  0  0  0  0  0  0  0  0
   15.7345   -7.7901  -18.7113 C   0  0  0  0  0  0  0  0  0  0  0  0
   16.6897   -8.5871  -18.9955 O   0  0  0  0  0  0  0  0  0  0  0  0
   14.6706   -8.2086  -17.7718 C   0  0  0  0  0  0  0  0  0  0  0  0
   15.2287   -9.0409  -16.6683 C   0  0  2  0  0  0  0  0  0  0  0  0
   14.2130   -9.6501  -15.8502 N   0  0  0  0  0  0  0  0  0  0  0  0
   16.1965   -8.2423  -15.8822 C   0  0  0  0  0  0  0  0  0  0  0  0
   15.7493   -7.4882  -14.9505 O   0  0  0  0  0  0  0  0  0  0  0  0
   17.5775   -8.3222  -16.1666 N   0  0  0  0  0  0  0  0  0  0  0  0
   18.4857   -7.4816  -15.3802 C   0  0  1  0  0  0  0  0  0  0  0  0
   19.7926   -8.1684  -15.1655 C   0  0  0  0  0  0  0  0  0  0  0  0
   20.7611   -7.2680  -14.5293 C   0  0  0  0  0  0  0  0  0  0  0  0
   21.5541   -6.4251  -15.2957 C   0  0  0  0  0  0  0  0  0  0  0  0
   22.4502   -5.5553  -14.7116 C   0  0  0  0  0  0  0  0  0  0  0  0
   22.5910   -5.4911  -13.3291 C   0  0  0  0  0  0  0  0  0  0  0  0
   21.8091   -6.3215  -12.5671 C   0  0  0  0  0  0  0  0  0  0  0  0
   20.9098   -7.1940  -13.1642 C   0  0  0  0  0  0  0  0  0  0  0  0
   18.6623   -6.2329  -16.1366 C   0  0  0  0  0  0  0  0  0  0  0  0
   18.8399   -5.0168  -15.5266 O   0  0  0  0  0  0  0  0  0  0  0  0
   18.6540   -6.2491  -17.3902 O   0  0  0  0  0  0  0  0  0  0  0  0
  2  1  1  0
  3  2  1  0
  4  3  2  0
  6  5  1  0
  7  6  2  0
  9  8  1  6
  8  6  1  0
  9 10  1  0
 10  3  1  0
 11  9  1  0
 11 12  2  0
 13 11  1  0
 14 13  1  0
 14 15  1  6
 16 21  2  0
 16 15  1  0
 17 16  1  0
 18 19  1  0
 18 17  2  0
 19 20  2  0
 20 21  1  0
 22 14  1  0
 23 22  1  0
 24 22  2  0
M  END
$$$$
