GNF.pdb
     RDKit          3D

 24 24  0  0  1  0  0  0  0  0999 V2000
   26.7721  -17.0000  -18.6130 N   0  0  0  0  0  0  0  0  0  0  0  0
   26.0668  -17.4311  -19.7853 C   0  0  0  0  0  0  0  0  0  0  0  0
   24.7329  -18.0238  -19.5104 C   0  0  0  0  0  0  0  0  0  0  0  0
   23.7799  -17.7281  -20.2855 O   0  0  0  0  0  0  0  0  0  0  0  0
   21.0390  -21.0359  -18.0613 N   0  0  0  0  0  0  0  0  0  0  0  0
   22.2429  -21.6689  -17.6229 C   0  0  0  0  0  0  0  0  0  0  0  0
   22.2076  -22.8963  -17.2755 O   0  0  0  0  0  0  0  0  0  0  0  0
   23.5161  -20.9166  -17.5691 C   0  0  0  0  0  0  0  0  0  0  0  0
   23.3509  -19.5451  -18.1290 C   0  0  2  0  0  0  0  0  0  0  0  0
   24.6038  -18.8883  -18.3952 N   0  0  0  0  0  0  0  0  0  0  0  0
   22.4621  -18.7516  -17.2500 C   0  0  0  0  0  0  0  0  0  0  0  0
   22.9088  -18.3758  -16.1116 O   0  0  0  0  0  0  0  0  0  0  0  0
   21.1547  -18.4254  -17.6729 N   0  0  0  0  0  0  0  0  0  0  0  0
   20.3773  -17.5047  -16.8376 C   0  0  1  0  0  0  0  0  0  0  0  0
   20.3701  -16.1330  -17.4244 C   0  0  0  0  0  0  0  0  0  0  0  0
   19.8661  -16.1538  -18.8025 C   0  0  0  0  0  0  0  0  0  0  0  0
   18.5024  -16.1193  -19.0585 C   0  0  0  0  0  0  0  0  0  0  0  0
   18.0142  -16.1125  -20.3479 C   0  0  0  0  0  0  0  0  0  0  0  0
   18.8740  -16.1394  -21.4411 C   0  0  0  0  0  0  0  0  0  0  0  0
   20.2227  -16.1728  -21.1935 C   0  0  0  0  0  0  0  0  0  0  0  0
   20.7049  -16.1795  -19.8919 C   0  0  0  0  0  0  0  0  0  0  0  0
   19.0157  -18.0549  -16.7619 C   0  0  0  0  0  0  0  0  0  0  0  0
   18.0435  -17.5167  -15.9572 O   0  0  0  0  0  0  0  0  0  0  0  0
   18.7016  -19.0560  -17.4484 O   0  0  0  0  0  0  0  0  0  0  0  0
  2  1  1  0
  3  2  1  0
  4  3  2  0
  6  5  1  0
  7  6  2  0
  9  8  1  1
  8  6  1  0
  9 10  1  0
 10  3  1  0
 11  9  1  0
 11 12  2  0
 13 11  1  0
 14 13  1  0
 14 15  1  6
 16 21  2  0
 16 15  1  0
 17 16  1  0
 18 19  1  0
 18 17  2  0
 19 20  2  0
 20 21  1  0
 22 14  1  0
 23 22  1  0
 24 22  2  0
M  END
$$$$
