ACQ.pdb
     RDKit          3D

 21 20  0  0  1  0  0  0  0  0999 V2000
   19.4316  -12.7663  -18.1733 C   0  0  0  0  0  0  0  0  0  0  0  0
   20.0680  -11.4724  -18.5999 C   0  0  2  0  0  0  0  0  0  0  0  0
   21.1583  -11.7202  -19.5462 N   0  0  0  0  0  0  0  0  0  0  0  0
   20.6349  -10.7233  -17.4479 C   0  0  0  0  0  0  0  0  0  0  0  0
   19.8481  -10.3563  -16.5250 O   0  0  0  0  0  0  0  0  0  0  0  0
   21.9906  -10.3919  -17.3104 N   0  0  0  0  0  0  0  0  0  0  0  0
   22.4990   -9.6791  -16.1147 C   0  0  1  0  0  0  0  0  0  0  0  0
   23.9763  -10.0574  -16.0739 C   0  0  0  0  0  0  0  0  0  0  0  0
   24.2163  -11.5706  -15.1555 S   0  0  0  0  0  0  0  0  0  0  0  0
   22.3123   -8.2427  -16.3162 C   0  0  0  0  0  0  0  0  0  0  0  0
   22.5529   -7.7261  -17.4455 O   0  0  0  0  0  0  0  0  0  0  0  0
   17.3814   -5.2504  -16.1581 N   0  0  0  0  0  0  0  0  0  0  0  0
   18.2886   -4.1653  -16.1519 C   0  0  0  0  0  0  0  0  0  0  0  0
   17.8236   -3.0105  -16.2908 O   0  0  0  0  0  0  0  0  0  0  0  0
   19.7474   -4.3307  -15.9911 C   0  0  0  0  0  0  0  0  0  0  0  0
   20.2120   -5.7232  -15.7855 C   0  0  0  0  0  0  0  0  0  0  0  0
   21.6761   -5.9188  -15.5858 C   0  0  2  0  0  0  0  0  0  0  0  0
   21.8671   -7.3553  -15.3124 N   0  0  0  0  0  0  0  0  0  0  0  0
   22.2489   -5.1062  -14.5043 C   0  0  0  0  0  0  0  0  0  0  0  0
   22.3013   -5.6030  -13.3539 O   0  0  0  0  0  0  0  0  0  0  0  0
   22.7394   -3.8226  -14.6603 O   0  0  0  0  0  0  0  0  0  0  0  0
  2  1  1  1
  3  2  1  0
  4  2  1  0
  4  5  2  0
  6  4  1  0
  7  6  1  0
  7 10  1  0
  7  8  1  6
  9  8  1  0
 10 18  1  0
 11 10  2  0
 13 12  1  0
 13 15  1  0
 14 13  2  0
 15 16  1  0
 17 16  1  1
 17 19  1  0
 18 17  1  0
 19 20  2  0
 19 21  1  0
M  END
$$$$
