ACQ.pdb
     RDKit          3D

 21 20  0  0  1  0  0  0  0  0999 V2000
   17.3727   -9.9309  -17.6197 C   0  0  0  0  0  0  0  0  0  0  0  0
   18.7076  -10.5330  -17.2784 C   0  0  2  0  0  0  0  0  0  0  0  0
   18.5491  -11.9157  -16.8213 N   0  0  0  0  0  0  0  0  0  0  0  0
   19.3997   -9.7802  -16.1996 C   0  0  0  0  0  0  0  0  0  0  0  0
   19.5376  -10.3394  -15.0710 O   0  0  0  0  0  0  0  0  0  0  0  0
   19.9145   -8.4839  -16.3452 N   0  0  0  0  0  0  0  0  0  0  0  0
   20.7300   -7.8478  -15.2837 C   0  0  1  0  0  0  0  0  0  0  0  0
   22.0646   -8.5817  -15.3696 C   0  0  0  0  0  0  0  0  0  0  0  0
   23.2767   -7.8162  -14.3041 S   0  0  0  0  0  0  0  0  0  0  0  0
   20.8716   -6.4262  -15.5962 C   0  0  0  0  0  0  0  0  0  0  0  0
   21.3507   -6.0686  -16.7109 O   0  0  0  0  0  0  0  0  0  0  0  0
   17.0712   -1.8405  -14.0127 N   0  0  0  0  0  0  0  0  0  0  0  0
   17.1007   -2.7545  -15.0917 C   0  0  0  0  0  0  0  0  0  0  0  0
   16.0335   -2.9636  -15.7134 O   0  0  0  0  0  0  0  0  0  0  0  0
   18.3226   -3.4683  -15.5149 C   0  0  0  0  0  0  0  0  0  0  0  0
   19.5247   -3.2220  -14.6833 C   0  0  0  0  0  0  0  0  0  0  0  0
   20.7597   -3.9705  -15.0521 C   0  0  2  0  0  0  0  0  0  0  0  0
   20.5006   -5.3837  -14.7194 N   0  0  0  0  0  0  0  0  0  0  0  0
   21.9747   -3.4950  -14.3773 C   0  0  0  0  0  0  0  0  0  0  0  0
   22.4111   -2.3574  -14.6748 O   0  0  0  0  0  0  0  0  0  0  0  0
   22.6805   -4.2137  -13.4297 O   0  0  0  0  0  0  0  0  0  0  0  0
  2  1  1  1
  3  2  1  0
  4  2  1  0
  4  5  2  0
  6  4  1  0
  7  6  1  0
  7 10  1  0
  7  8  1  6
  9  8  1  0
 10 18  1  0
 11 10  2  0
 13 12  1  0
 13 15  1  0
 14 13  2  0
 15 16  1  0
 17 16  1  1
 17 19  1  0
 18 17  1  0
 19 20  2  0
 19 21  1  0
M  END
$$$$
