ACQ.pdb
     RDKit          3D

 21 20  0  0  1  0  0  0  0  0999 V2000
   33.3608  -10.6651  -17.5406 C   0  0  0  0  0  0  0  0  0  0  0  0
   32.5869  -11.9408  -17.7272 C   0  0  2  0  0  0  0  0  0  0  0  0
   33.0196  -12.6346  -18.9426 N   0  0  0  0  0  0  0  0  0  0  0  0
   31.1259  -11.6944  -17.8469 C   0  0  0  0  0  0  0  0  0  0  0  0
   30.6512  -11.4471  -18.9954 O   0  0  0  0  0  0  0  0  0  0  0  0
   30.2294  -11.7169  -16.7688 N   0  0  0  0  0  0  0  0  0  0  0  0
   28.7735  -11.5214  -16.9645 C   0  0  1  0  0  0  0  0  0  0  0  0
   28.1594  -12.1182  -15.7020 C   0  0  0  0  0  0  0  0  0  0  0  0
   28.2605  -13.9013  -15.7318 S   0  0  0  0  0  0  0  0  0  0  0  0
   28.5078  -10.0873  -17.0712 C   0  0  0  0  0  0  0  0  0  0  0  0
   29.1722   -9.2676  -16.3735 O   0  0  0  0  0  0  0  0  0  0  0  0
   31.2850   -6.9935  -20.1134 N   0  0  0  0  0  0  0  0  0  0  0  0
   30.2941   -6.0159  -19.8625 C   0  0  0  0  0  0  0  0  0  0  0  0
   30.5499   -4.8285  -20.1690 O   0  0  0  0  0  0  0  0  0  0  0  0
   28.9825   -6.3288  -19.2598 C   0  0  0  0  0  0  0  0  0  0  0  0
   28.8006   -7.7337  -18.8233 C   0  0  0  0  0  0  0  0  0  0  0  0
   27.4926   -8.0768  -18.1964 C   0  0  2  0  0  0  0  0  0  0  0  0
   27.5329   -9.5256  -17.9241 N   0  0  0  0  0  0  0  0  0  0  0  0
   26.3243   -7.7380  -19.0199 C   0  0  0  0  0  0  0  0  0  0  0  0
   25.8166   -8.6402  -19.7279 O   0  0  0  0  0  0  0  0  0  0  0  0
   25.7362   -6.4874  -19.0740 O   0  0  0  0  0  0  0  0  0  0  0  0
  2  1  1  6
  3  2  1  0
  4  2  1  0
  4  5  2  0
  6  4  1  0
  7  6  1  0
  7 10  1  0
  7  8  1  1
  9  8  1  0
 10 18  1  0
 11 10  2  0
 13 12  1  0
 13 15  1  0
 14 13  2  0
 15 16  1  0
 17 16  1  6
 17 19  1  0
 18 17  1  0
 19 20  2  0
 19 21  1  0
M  END
$$$$
