ACQ.pdb
     RDKit          3D

 21 20  0  0  1  0  0  0  0  0999 V2000
   27.5646  -19.4086  -15.9846 C   0  0  0  0  0  0  0  0  0  0  0  0
   27.9345  -20.6549  -15.2289 C   0  0  2  0  0  0  0  0  0  0  0  0
   28.1873  -21.7634  -16.1526 N   0  0  0  0  0  0  0  0  0  0  0  0
   26.8575  -21.0830  -14.2980 C   0  0  0  0  0  0  0  0  0  0  0  0
   25.9083  -21.7837  -14.7602 O   0  0  0  0  0  0  0  0  0  0  0  0
   26.8186  -20.7627  -12.9333 N   0  0  0  0  0  0  0  0  0  0  0  0
   25.7141  -21.2219  -12.0584 C   0  0  1  0  0  0  0  0  0  0  0  0
   26.2556  -20.9965  -10.6502 C   0  0  0  0  0  0  0  0  0  0  0  0
   24.9451  -21.1155   -9.4423 S   0  0  0  0  0  0  0  0  0  0  0  0
   24.5366  -20.3965  -12.3253 C   0  0  0  0  0  0  0  0  0  0  0  0
   24.6473  -19.1379  -12.3855 O   0  0  0  0  0  0  0  0  0  0  0  0
   22.5338  -20.3792  -17.0379 N   0  0  0  0  0  0  0  0  0  0  0  0
   21.2493  -20.4848  -16.4552 C   0  0  0  0  0  0  0  0  0  0  0  0
   20.3162  -20.9234  -17.1666 O   0  0  0  0  0  0  0  0  0  0  0  0
   20.9606  -20.1039  -15.0577 C   0  0  0  0  0  0  0  0  0  0  0  0
   22.1378  -19.7065  -14.2493 C   0  0  0  0  0  0  0  0  0  0  0  0
   22.0908  -20.0269  -12.7944 C   0  0  2  0  0  0  0  0  0  0  0  0
   23.2390  -20.9137  -12.5298 N   0  0  0  0  0  0  0  0  0  0  0  0
   20.8384  -20.6588  -12.3583 C   0  0  0  0  0  0  0  0  0  0  0  0
   19.8245  -19.9331  -12.2227 O   0  0  0  0  0  0  0  0  0  0  0  0
   20.6915  -22.0062  -12.0834 O   0  0  0  0  0  0  0  0  0  0  0  0
  2  1  1  6
  3  2  1  0
  4  2  1  0
  4  5  2  0
  6  4  1  0
  7  6  1  0
  7 10  1  0
  7  8  1  1
  9  8  1  0
 10 18  1  0
 11 10  2  0
 13 12  1  0
 13 15  1  0
 14 13  2  0
 15 16  1  0
 17 16  1  6
 17 19  1  0
 18 17  1  0
 19 20  2  0
 19 21  1  0
M  END
$$$$
