ACQ.pdb
     RDKit          3D

 21 20  0  0  1  0  0  0  0  0999 V2000
   23.9748  -15.3030  -19.3931 C   0  0  0  0  0  0  0  0  0  0  0  0
   23.7769  -13.8371  -19.6632 C   0  0  2  0  0  0  0  0  0  0  0  0
   24.8057  -13.3367  -20.5780 N   0  0  0  0  0  0  0  0  0  0  0  0
   23.8492  -13.0261  -18.4196 C   0  0  0  0  0  0  0  0  0  0  0  0
   22.9744  -13.2216  -17.5239 O   0  0  0  0  0  0  0  0  0  0  0  0
   24.8258  -12.0520  -18.1665 N   0  0  0  0  0  0  0  0  0  0  0  0
   24.8348  -11.2690  -16.9083 C   0  0  1  0  0  0  0  0  0  0  0  0
   26.3153  -10.9863  -16.6734 C   0  0  0  0  0  0  0  0  0  0  0  0
   26.5322   -9.8212  -15.3370 S   0  0  0  0  0  0  0  0  0  0  0  0
   24.0747  -10.0381  -17.1220 C   0  0  0  0  0  0  0  0  0  0  0  0
   24.3208   -9.3094  -18.1263 O   0  0  0  0  0  0  0  0  0  0  0  0
   19.7369  -11.4462  -16.9514 N   0  0  0  0  0  0  0  0  0  0  0  0
   20.1418  -10.8282  -18.1576 C   0  0  0  0  0  0  0  0  0  0  0  0
   19.9909  -11.4675  -19.2242 O   0  0  0  0  0  0  0  0  0  0  0  0
   20.7303   -9.4748  -18.2159 C   0  0  0  0  0  0  0  0  0  0  0  0
   20.9054   -8.7991  -16.9082 C   0  0  0  0  0  0  0  0  0  0  0  0
   22.2860   -8.3572  -16.5616 C   0  0  2  0  0  0  0  0  0  0  0  0
   23.0494   -9.5835  -16.2645 N   0  0  0  0  0  0  0  0  0  0  0  0
   22.3514   -7.4211  -15.4314 C   0  0  0  0  0  0  0  0  0  0  0  0
   22.8827   -7.8149  -14.3658 O   0  0  0  0  0  0  0  0  0  0  0  0
   21.8669   -6.1260  -15.4539 O   0  0  0  0  0  0  0  0  0  0  0  0
  2  1  1  1
  3  2  1  0
  4  2  1  0
  4  5  2  0
  6  4  1  0
  7  6  1  0
  7 10  1  0
  7  8  1  6
  9  8  1  0
 10 18  1  0
 11 10  2  0
 13 12  1  0
 13 15  1  0
 14 13  2  0
 15 16  1  0
 17 16  1  1
 17 19  1  0
 18 17  1  0
 19 20  2  0
 19 21  1  0
M  END
$$$$
