ACQ.pdb
     RDKit          3D

 21 20  0  0  1  0  0  0  0  0999 V2000
   16.9739  -15.1458  -17.2232 C   0  0  0  0  0  0  0  0  0  0  0  0
   17.7181  -14.2178  -16.3034 C   0  0  2  0  0  0  0  0  0  0  0  0
   17.2075  -14.3277  -14.9348 N   0  0  0  0  0  0  0  0  0  0  0  0
   17.5863  -12.7967  -16.7189 C   0  0  0  0  0  0  0  0  0  0  0  0
   18.0984  -12.4443  -17.8231 O   0  0  0  0  0  0  0  0  0  0  0  0
   16.9295  -11.8111  -15.9680 N   0  0  0  0  0  0  0  0  0  0  0  0
   16.7489  -10.4333  -16.4830 C   0  0  1  0  0  0  0  0  0  0  0  0
   15.2362  -10.2373  -16.4580 C   0  0  0  0  0  0  0  0  0  0  0  0
   14.8222   -8.5014  -16.5342 S   0  0  0  0  0  0  0  0  0  0  0  0
   17.4308   -9.5069  -15.5800 C   0  0  0  0  0  0  0  0  0  0  0  0
   17.3060   -9.6374  -14.3280 O   0  0  0  0  0  0  0  0  0  0  0  0
   22.7626   -6.3492  -16.7622 N   0  0  0  0  0  0  0  0  0  0  0  0
   22.2781   -5.7421  -15.5801 C   0  0  0  0  0  0  0  0  0  0  0  0
   22.9761   -4.8463  -15.0516 O   0  0  0  0  0  0  0  0  0  0  0  0
   20.9973   -6.1141  -14.9455 C   0  0  0  0  0  0  0  0  0  0  0  0
   20.1785   -7.0988  -15.6920 C   0  0  0  0  0  0  0  0  0  0  0  0
   18.9073   -7.5377  -15.0495 C   0  0  2  0  0  0  0  0  0  0  0  0
   18.2485   -8.4402  -16.0121 N   0  0  0  0  0  0  0  0  0  0  0  0
   18.0103   -6.4356  -14.6771 C   0  0  0  0  0  0  0  0  0  0  0  0
   17.2339   -5.9822  -15.5515 O   0  0  0  0  0  0  0  0  0  0  0  0
   17.9568   -5.8546  -13.4232 O   0  0  0  0  0  0  0  0  0  0  0  0
  2  1  1  6
  3  2  1  0
  4  2  1  0
  4  5  2  0
  6  4  1  0
  7  6  1  0
  7 10  1  0
  7  8  1  1
  9  8  1  0
 10 18  1  0
 11 10  2  0
 13 12  1  0
 13 15  1  0
 14 13  2  0
 15 16  1  0
 17 16  1  6
 17 19  1  0
 18 17  1  0
 19 20  2  0
 19 21  1  0
M  END
$$$$
