ACQ.pdb
     RDKit          3D

 21 20  0  0  1  0  0  0  0  0999 V2000
   16.5858   -8.3257  -16.7767 C   0  0  0  0  0  0  0  0  0  0  0  0
   18.0092   -8.7338  -16.5151 C   0  0  2  0  0  0  0  0  0  0  0  0
   18.2814  -10.0546  -17.0872 N   0  0  0  0  0  0  0  0  0  0  0  0
   18.3113   -8.8033  -15.0614 C   0  0  0  0  0  0  0  0  0  0  0  0
   18.0332   -9.8728  -14.4411 O   0  0  0  0  0  0  0  0  0  0  0  0
   18.8871   -7.7596  -14.3227 N   0  0  0  0  0  0  0  0  0  0  0  0
   19.1635   -7.8938  -12.8730 C   0  0  1  0  0  0  0  0  0  0  0  0
   20.5609   -7.3019  -12.7187 C   0  0  0  0  0  0  0  0  0  0  0  0
   20.9989   -7.1562  -10.9932 S   0  0  0  0  0  0  0  0  0  0  0  0
   18.1632   -7.1222  -12.1362 C   0  0  0  0  0  0  0  0  0  0  0  0
   17.8616   -5.9535  -12.5147 O   0  0  0  0  0  0  0  0  0  0  0  0
   13.3121   -9.4552   -8.8858 N   0  0  0  0  0  0  0  0  0  0  0  0
   13.2874   -8.0767   -8.5702 C   0  0  0  0  0  0  0  0  0  0  0  0
   12.3491   -7.6547   -7.8556 O   0  0  0  0  0  0  0  0  0  0  0  0
   14.3091   -7.1199   -9.0416 C   0  0  0  0  0  0  0  0  0  0  0  0
   15.4411   -7.7145   -9.7915 C   0  0  0  0  0  0  0  0  0  0  0  0
   16.4778   -6.7715  -10.2990 C   0  0  2  0  0  0  0  0  0  0  0  0
   17.4820   -7.5977  -10.9946 N   0  0  0  0  0  0  0  0  0  0  0  0
   17.1125   -5.9571   -9.2542 C   0  0  0  0  0  0  0  0  0  0  0  0
   18.1285   -6.4167   -8.6800 O   0  0  0  0  0  0  0  0  0  0  0  0
   16.6704   -4.7099   -8.8519 O   0  0  0  0  0  0  0  0  0  0  0  0
  2  1  1  1
  3  2  1  0
  4  2  1  0
  4  5  2  0
  6  4  1  0
  7  6  1  0
  7 10  1  0
  7  8  1  6
  9  8  1  0
 10 18  1  0
 11 10  2  0
 13 12  1  0
 13 15  1  0
 14 13  2  0
 15 16  1  0
 17 16  1  1
 17 19  1  0
 18 17  1  0
 19 20  2  0
 19 21  1  0
M  END
$$$$
