PKY.pdb
     RDKit          3D

 29 30  0  0  1  0  0  0  0  0999 V2000
   28.3084  -20.0377  -15.7926 N   0  0  0  0  0  0  0  0  0  0  0  0
   28.3201  -19.5749  -17.1524 C   0  0  0  0  0  0  0  0  0  0  0  0
   28.6323  -18.0878  -17.0833 C   0  0  0  0  0  0  0  0  0  0  0  0
   28.0725  -17.7210  -15.7504 C   0  0  0  0  0  0  0  0  0  0  0  0
   28.2408  -18.9317  -14.9040 C   0  0  1  0  0  0  0  0  0  0  0  0
   27.1859  -19.0682  -13.8677 C   0  0  0  0  0  0  0  0  0  0  0  0
   26.9405  -18.0729  -13.1348 O   0  0  0  0  0  0  0  0  0  0  0  0
   26.4315  -20.2452  -13.6438 N   0  0  0  0  0  0  0  0  0  0  0  0
   25.3796  -20.3665  -12.6893 C   0  0  1  0  0  0  0  0  0  0  0  0
   24.2604  -21.2692  -13.1458 C   0  0  0  0  0  0  0  0  0  0  0  0
   23.0719  -21.1360  -12.2204 C   0  0  0  0  0  0  0  0  0  0  0  0
   21.9868  -22.0326  -12.7853 C   0  0  0  0  0  0  0  0  0  0  0  0
   20.7499  -21.9225  -11.9064 C   0  0  0  0  0  0  0  0  0  0  0  0
   19.7371  -22.7661  -12.4950 N   0  0  0  0  0  0  0  0  0  0  0  0
   25.8877  -20.8416  -11.3521 C   0  0  0  0  0  0  0  0  0  0  0  0
   26.5061  -21.9356  -11.3332 O   0  0  0  0  0  0  0  0  0  0  0  0
   28.9506  -20.7111   -3.1251 O   0  0  0  0  0  0  0  0  0  0  0  0
   28.5311  -20.4019   -4.4306 C   0  0  0  0  0  0  0  0  0  0  0  0
   27.4690  -19.5629   -4.6166 C   0  0  0  0  0  0  0  0  0  0  0  0
   27.0297  -19.2372   -5.9022 C   0  0  0  0  0  0  0  0  0  0  0  0
   27.6463  -19.7467   -7.0210 C   0  0  0  0  0  0  0  0  0  0  0  0
   27.1646  -19.4043   -8.3702 C   0  0  0  0  0  0  0  0  0  0  0  0
   26.3051  -20.4976   -8.9134 C   0  0  2  0  0  0  0  0  0  0  0  0
   25.6883  -20.1102  -10.1773 N   0  0  0  0  0  0  0  0  0  0  0  0
   25.2869  -20.9648   -7.9527 C   0  0  0  0  0  0  0  0  0  0  0  0
   23.9466  -20.6346   -8.2339 O   0  0  0  0  0  0  0  0  0  0  0  0
   28.7291  -20.6014   -6.7988 C   0  0  0  0  0  0  0  0  0  0  0  0
   29.1556  -20.9170   -5.5355 C   0  0  0  0  0  0  0  0  0  0  0  0
   25.5188  -21.6280   -6.9129 O   0  0  0  0  0  0  0  0  0  0  0  0
  1  5  1  0
  2  1  1  0
  3  2  1  0
  3  4  1  0
  4  5  1  0
  5  6  1  1
  6  7  2  0
  8  9  1  0
  8  6  1  0
  9 15  1  0
 10 11  1  0
  9 10  1  6
 11 12  1  0
 13 12  1  0
 14 13  1  0
 15 16  2  0
 15 24  1  0
 17 18  1  0
 18 19  2  0
 18 28  1  0
 19 20  1  0
 20 21  2  0
 21 22  1  0
 23 22  1  1
 23 25  1  0
 24 23  1  0
 25 29  2  0
 25 26  1  0
 27 21  1  0
 28 27  2  0
M  END
$$$$
