PKY.pdb
     RDKit          3D

 29 30  0  0  1  0  0  0  0  0999 V2000
   14.0250  -22.5466    1.4572 N   0  0  0  0  0  0  0  0  0  0  0  0
   13.9764  -22.4355    0.0258 C   0  0  0  0  0  0  0  0  0  0  0  0
   15.4018  -22.1437   -0.4177 C   0  0  0  0  0  0  0  0  0  0  0  0
   15.9503  -21.4297    0.7714 C   0  0  0  0  0  0  0  0  0  0  0  0
   15.2503  -22.0181    1.9438 C   0  0  1  0  0  0  0  0  0  0  0  0
   15.0780  -21.0557    3.0616 C   0  0  0  0  0  0  0  0  0  0  0  0
   13.9858  -20.4329    3.1465 O   0  0  0  0  0  0  0  0  0  0  0  0
   16.0605  -20.7871    4.0450 N   0  0  0  0  0  0  0  0  0  0  0  0
   15.8354  -20.0322    5.2331 C   0  0  1  0  0  0  0  0  0  0  0  0
   15.7556  -20.8841    6.4756 C   0  0  0  0  0  0  0  0  0  0  0  0
   15.4103  -20.0288    7.6738 C   0  0  0  0  0  0  0  0  0  0  0  0
   14.9388  -20.9798    8.7571 C   0  0  0  0  0  0  0  0  0  0  0  0
   14.5467  -20.1718    9.9852 C   0  0  0  0  0  0  0  0  0  0  0  0
   13.9815  -21.0980   10.9373 N   0  0  0  0  0  0  0  0  0  0  0  0
   16.8835  -18.9663    5.4274 C   0  0  0  0  0  0  0  0  0  0  0  0
   18.0669  -19.3546    5.5955 O   0  0  0  0  0  0  0  0  0  0  0  0
   20.0790  -11.1203    4.4889 O   0  0  0  0  0  0  0  0  0  0  0  0
   19.2233  -12.1570    4.8998 C   0  0  0  0  0  0  0  0  0  0  0  0
   19.1904  -12.5224    6.2158 C   0  0  0  0  0  0  0  0  0  0  0  0
   18.3499  -13.5489    6.6537 C   0  0  0  0  0  0  0  0  0  0  0  0
   17.5301  -14.2255    5.7810 C   0  0  0  0  0  0  0  0  0  0  0  0
   16.6580  -15.3139    6.2546 C   0  0  0  0  0  0  0  0  0  0  0  0
   17.3615  -16.6275    6.1628 C   0  0  2  0  0  0  0  0  0  0  0  0
   16.5693  -17.6039    5.4233 N   0  0  0  0  0  0  0  0  0  0  0  0
   17.7618  -17.1629    7.4785 C   0  0  0  0  0  0  0  0  0  0  0  0
   19.1434  -17.2313    7.7450 O   0  0  0  0  0  0  0  0  0  0  0  0
   17.5859  -13.8294    4.4422 C   0  0  0  0  0  0  0  0  0  0  0  0
   18.4121  -12.8216    4.0188 C   0  0  0  0  0  0  0  0  0  0  0  0
   16.9747  -17.5590    8.3720 O   0  0  0  0  0  0  0  0  0  0  0  0
  1  5  1  0
  2  1  1  0
  3  2  1  0
  3  4  1  0
  4  5  1  0
  5  6  1  1
  6  7  2  0
  8  9  1  0
  8  6  1  0
  9 15  1  0
 10 11  1  0
  9 10  1  1
 11 12  1  0
 13 12  1  0
 14 13  1  0
 15 16  2  0
 15 24  1  0
 17 18  1  0
 18 19  2  0
 18 28  1  0
 19 20  1  0
 20 21  2  0
 21 22  1  0
 23 22  1  1
 23 25  1  0
 24 23  1  0
 25 29  2  0
 25 26  1  0
 27 21  1  0
 28 27  2  0
M  END
$$$$
