PKY.pdb
     RDKit          3D

 29 30  0  0  1  0  0  0  0  0999 V2000
   23.8885  -14.5408  -18.7192 N   0  0  0  0  0  0  0  0  0  0  0  0
   23.9436  -15.5450  -19.7449 C   0  0  0  0  0  0  0  0  0  0  0  0
   25.2420  -15.2998  -20.4982 C   0  0  0  0  0  0  0  0  0  0  0  0
   25.4251  -13.8305  -20.3189 C   0  0  0  0  0  0  0  0  0  0  0  0
   24.8358  -13.5177  -18.9901 C   0  0  1  0  0  0  0  0  0  0  0  0
   24.2667  -12.1482  -18.9140 C   0  0  0  0  0  0  0  0  0  0  0  0
   25.0649  -11.1736  -18.8852 O   0  0  0  0  0  0  0  0  0  0  0  0
   22.8814  -11.8585  -18.8714 N   0  0  0  0  0  0  0  0  0  0  0  0
   22.3243  -10.5469  -18.9123 C   0  0  1  0  0  0  0  0  0  0  0  0
   20.9157  -10.5132  -19.4513 C   0  0  0  0  0  0  0  0  0  0  0  0
   20.8735  -11.1112  -20.8395 C   0  0  0  0  0  0  0  0  0  0  0  0
   19.4372  -10.9947  -21.3125 C   0  0  0  0  0  0  0  0  0  0  0  0
   19.3057  -11.6840  -22.6624 C   0  0  0  0  0  0  0  0  0  0  0  0
   17.9642  -11.4361  -23.1343 N   0  0  0  0  0  0  0  0  0  0  0  0
   22.3552   -9.8821  -17.5597 C   0  0  0  0  0  0  0  0  0  0  0  0
   21.9144  -10.5461  -16.5880 O   0  0  0  0  0  0  0  0  0  0  0  0
   27.9196  -11.8472  -15.7893 O   0  0  0  0  0  0  0  0  0  0  0  0
   26.9999  -10.7849  -15.7480 C   0  0  0  0  0  0  0  0  0  0  0  0
   27.0479   -9.8140  -16.7080 C   0  0  0  0  0  0  0  0  0  0  0  0
   26.1468   -8.7464  -16.6931 C   0  0  0  0  0  0  0  0  0  0  0  0
   25.1846   -8.6342  -15.7169 C   0  0  0  0  0  0  0  0  0  0  0  0
   24.2490   -7.4966  -15.7066 C   0  0  0  0  0  0  0  0  0  0  0  0
   22.8720   -7.9467  -16.0675 C   0  0  2  0  0  0  0  0  0  0  0  0
   22.8486   -8.5865  -17.3782 N   0  0  0  0  0  0  0  0  0  0  0  0
   21.8712   -6.8647  -15.9925 C   0  0  0  0  0  0  0  0  0  0  0  0
   21.6617   -6.2770  -14.7294 O   0  0  0  0  0  0  0  0  0  0  0  0
   25.1605   -9.6420  -14.7494 C   0  0  0  0  0  0  0  0  0  0  0  0
   26.0467  -10.6868  -14.7695 C   0  0  0  0  0  0  0  0  0  0  0  0
   21.1971   -6.4298  -16.9576 O   0  0  0  0  0  0  0  0  0  0  0  0
  1  5  1  0
  2  1  1  0
  3  2  1  0
  3  4  1  0
  4  5  1  0
  5  6  1  6
  6  7  2  0
  8  9  1  0
  8  6  1  0
  9 15  1  0
 10 11  1  0
  9 10  1  1
 11 12  1  0
 13 12  1  0
 14 13  1  0
 15 16  2  0
 15 24  1  0
 17 18  1  0
 18 19  2  0
 18 28  1  0
 19 20  1  0
 20 21  2  0
 21 22  1  0
 23 22  1  6
 23 25  1  0
 24 23  1  0
 25 29  2  0
 25 26  1  0
 27 21  1  0
 28 27  2  0
M  END
$$$$
