PKY.pdb
     RDKit          3D

 29 30  0  0  1  0  0  0  0  0999 V2000
   26.7503  -22.3240  -16.0571 N   0  0  0  0  0  0  0  0  0  0  0  0
   26.5258  -22.1441  -17.4645 C   0  0  0  0  0  0  0  0  0  0  0  0
   27.4108  -20.9795  -17.8817 C   0  0  0  0  0  0  0  0  0  0  0  0
   27.4854  -20.1870  -16.6204 C   0  0  0  0  0  0  0  0  0  0  0  0
   27.4080  -21.1850  -15.5210 C   0  0  1  0  0  0  0  0  0  0  0  0
   26.7626  -20.6508  -14.2948 C   0  0  0  0  0  0  0  0  0  0  0  0
   27.2170  -19.5845  -13.8004 O   0  0  0  0  0  0  0  0  0  0  0  0
   25.6656  -21.2591  -13.6381 N   0  0  0  0  0  0  0  0  0  0  0  0
   24.9437  -20.6780  -12.5548 C   0  0  1  0  0  0  0  0  0  0  0  0
   23.4907  -21.0824  -12.5205 C   0  0  0  0  0  0  0  0  0  0  0  0
   22.7514  -20.4723  -13.6900 C   0  0  0  0  0  0  0  0  0  0  0  0
   21.3171  -20.9550  -13.5887 C   0  0  0  0  0  0  0  0  0  0  0  0
   20.5358  -20.4321  -14.7849 C   0  0  0  0  0  0  0  0  0  0  0  0
   19.1709  -20.8731  -14.6233 N   0  0  0  0  0  0  0  0  0  0  0  0
   25.5790  -20.9929  -11.2245 C   0  0  0  0  0  0  0  0  0  0  0  0
   25.5806  -22.1969  -10.8644 O   0  0  0  0  0  0  0  0  0  0  0  0
   29.4059  -20.4541   -3.3447 O   0  0  0  0  0  0  0  0  0  0  0  0
   28.9046  -20.1116   -4.6125 C   0  0  0  0  0  0  0  0  0  0  0  0
   29.0782  -20.9706   -5.6607 C   0  0  0  0  0  0  0  0  0  0  0  0
   28.5908  -20.6575   -6.9320 C   0  0  0  0  0  0  0  0  0  0  0  0
   27.9229  -19.4797   -7.1736 C   0  0  0  0  0  0  0  0  0  0  0  0
   27.4251  -19.1572   -8.5218 C   0  0  0  0  0  0  0  0  0  0  0  0
   26.6028  -20.2810   -9.0602 C   0  0  2  0  0  0  0  0  0  0  0  0
   26.1449  -20.0019  -10.4167 N   0  0  0  0  0  0  0  0  0  0  0  0
   25.4693  -20.6393   -8.1856 C   0  0  0  0  0  0  0  0  0  0  0  0
   25.6710  -21.7039   -7.2853 O   0  0  0  0  0  0  0  0  0  0  0  0
   27.7609  -18.6221   -6.0824 C   0  0  0  0  0  0  0  0  0  0  0  0
   28.2409  -18.9349   -4.8377 C   0  0  0  0  0  0  0  0  0  0  0  0
   24.3485  -20.0750   -8.1806 O   0  0  0  0  0  0  0  0  0  0  0  0
  1  5  1  0
  2  1  1  0
  3  2  1  0
  3  4  1  0
  4  5  1  0
  5  6  1  1
  6  7  2  0
  8  9  1  0
  8  6  1  0
  9 15  1  0
 10 11  1  0
  9 10  1  1
 11 12  1  0
 13 12  1  0
 14 13  1  0
 15 16  2  0
 15 24  1  0
 17 18  1  0
 18 19  2  0
 18 28  1  0
 19 20  1  0
 20 21  2  0
 21 22  1  0
 23 22  1  1
 23 25  1  0
 24 23  1  0
 25 29  2  0
 25 26  1  0
 27 21  1  0
 28 27  2  0
M  END
$$$$
