PKY.pdb
     RDKit          3D

 29 30  0  0  1  0  0  0  0  0999 V2000
   13.8493  -12.4251  -10.5340 N   0  0  0  0  0  0  0  0  0  0  0  0
   12.9746  -13.3859  -11.1467 C   0  0  0  0  0  0  0  0  0  0  0  0
   13.8727  -14.5072  -11.6465 C   0  0  0  0  0  0  0  0  0  0  0  0
   15.1471  -13.7799  -11.9142 C   0  0  0  0  0  0  0  0  0  0  0  0
   15.1940  -12.6821  -10.9125 C   0  0  1  0  0  0  0  0  0  0  0  0
   15.9119  -11.4780  -11.4023 C   0  0  0  0  0  0  0  0  0  0  0  0
   17.0898  -11.6201  -11.8271 O   0  0  0  0  0  0  0  0  0  0  0  0
   15.3626  -10.1732  -11.4260 N   0  0  0  0  0  0  0  0  0  0  0  0
   15.9945   -9.0365  -12.0098 C   0  0  1  0  0  0  0  0  0  0  0  0
   15.0557   -8.1875  -12.8306 C   0  0  0  0  0  0  0  0  0  0  0  0
   14.6005   -8.9478  -14.0558 C   0  0  0  0  0  0  0  0  0  0  0  0
   13.7494   -7.9873  -14.8641 C   0  0  0  0  0  0  0  0  0  0  0  0
   13.2008   -8.7189  -16.0800 C   0  0  0  0  0  0  0  0  0  0  0  0
   12.3967   -7.7721  -16.8153 N   0  0  0  0  0  0  0  0  0  0  0  0
   16.6666   -8.1738  -10.9722 C   0  0  0  0  0  0  0  0  0  0  0  0
   16.0950   -8.0734   -9.8574 O   0  0  0  0  0  0  0  0  0  0  0  0
   22.3911   -6.4517  -15.2770 O   0  0  0  0  0  0  0  0  0  0  0  0
   21.7895   -6.5931  -14.0145 C   0  0  0  0  0  0  0  0  0  0  0  0
   21.5935   -5.4892  -13.2337 C   0  0  0  0  0  0  0  0  0  0  0  0
   20.9979   -5.5986  -11.9747 C   0  0  0  0  0  0  0  0  0  0  0  0
   20.5901   -6.8145  -11.4778 C   0  0  0  0  0  0  0  0  0  0  0  0
   19.9747   -6.9165  -10.1435 C   0  0  0  0  0  0  0  0  0  0  0  0
   18.5061   -6.6596  -10.2221 C   0  0  2  0  0  0  0  0  0  0  0  0
   17.8709   -7.5094  -11.2232 N   0  0  0  0  0  0  0  0  0  0  0  0
   18.1787   -5.2393  -10.4536 C   0  0  0  0  0  0  0  0  0  0  0  0
   18.4075   -4.3504   -9.3849 O   0  0  0  0  0  0  0  0  0  0  0  0
   20.8037   -7.9245  -12.2991 C   0  0  0  0  0  0  0  0  0  0  0  0
   21.3880   -7.8109  -13.5332 C   0  0  0  0  0  0  0  0  0  0  0  0
   17.7162   -4.7642  -11.5191 O   0  0  0  0  0  0  0  0  0  0  0  0
  1  5  1  0
  2  1  1  0
  3  2  1  0
  3  4  1  0
  4  5  1  0
  5  6  1  6
  6  7  2  0
  8  9  1  0
  8  6  1  0
  9 15  1  0
 10 11  1  0
  9 10  1  1
 11 12  1  0
 13 12  1  0
 14 13  1  0
 15 16  2  0
 15 24  1  0
 17 18  1  0
 18 19  2  0
 18 28  1  0
 19 20  1  0
 20 21  2  0
 21 22  1  0
 23 22  1  6
 23 25  1  0
 24 23  1  0
 25 29  2  0
 25 26  1  0
 27 21  1  0
 28 27  2  0
M  END
$$$$
