PKY.pdb
     RDKit          3D

 29 30  0  0  1  0  0  0  0  0999 V2000
   27.2903  -23.0937  -16.3536 N   0  0  0  0  0  0  0  0  0  0  0  0
   27.0551  -23.1749  -17.7684 C   0  0  0  0  0  0  0  0  0  0  0  0
   28.0417  -22.2117  -18.4105 C   0  0  0  0  0  0  0  0  0  0  0  0
   28.2208  -21.1963  -17.3328 C   0  0  0  0  0  0  0  0  0  0  0  0
   28.0685  -21.9432  -16.0562 C   0  0  1  0  0  0  0  0  0  0  0  0
   27.5050  -21.1140  -14.9607 C   0  0  0  0  0  0  0  0  0  0  0  0
   28.0950  -20.0408  -14.6640 O   0  0  0  0  0  0  0  0  0  0  0  0
   26.3440  -21.4464  -14.2215 N   0  0  0  0  0  0  0  0  0  0  0  0
   25.6908  -20.5761  -13.3005 C   0  0  1  0  0  0  0  0  0  0  0  0
   24.1896  -20.5672  -13.4497 C   0  0  0  0  0  0  0  0  0  0  0  0
   23.7866  -19.7008  -14.6217 C   0  0  0  0  0  0  0  0  0  0  0  0
   22.2761  -19.7926  -14.7224 C   0  0  0  0  0  0  0  0  0  0  0  0
   21.8157  -19.0125  -15.9448 C   0  0  0  0  0  0  0  0  0  0  0  0
   20.3741  -19.0804  -15.9709 N   0  0  0  0  0  0  0  0  0  0  0  0
   26.0467  -20.9016  -11.8724 C   0  0  0  0  0  0  0  0  0  0  0  0
   25.9405  -22.1027  -11.5181 O   0  0  0  0  0  0  0  0  0  0  0  0
   28.5387  -20.3431   -3.4539 O   0  0  0  0  0  0  0  0  0  0  0  0
   28.3170  -20.0689   -4.8146 C   0  0  0  0  0  0  0  0  0  0  0  0
   27.5922  -18.9670   -5.1710 C   0  0  0  0  0  0  0  0  0  0  0  0
   27.3558  -18.6687   -6.5152 C   0  0  0  0  0  0  0  0  0  0  0  0
   27.8407  -19.4691   -7.5230 C   0  0  0  0  0  0  0  0  0  0  0  0
   27.5733  -19.1492   -8.9357 C   0  0  0  0  0  0  0  0  0  0  0  0
   26.7767  -20.2363   -9.5781 C   0  0  2  0  0  0  0  0  0  0  0  0
   26.4770  -19.9233  -10.9709 N   0  0  0  0  0  0  0  0  0  0  0  0
   25.5443  -20.5662   -8.8362 C   0  0  0  0  0  0  0  0  0  0  0  0
   24.3940  -19.8139   -9.1451 O   0  0  0  0  0  0  0  0  0  0  0  0
   28.5780  -20.5882   -7.1275 C   0  0  0  0  0  0  0  0  0  0  0  0
   28.8068  -20.8754   -5.8074 C   0  0  0  0  0  0  0  0  0  0  0  0
   25.4406  -21.4573   -7.9587 O   0  0  0  0  0  0  0  0  0  0  0  0
  1  5  1  0
  2  1  1  0
  3  2  1  0
  3  4  1  0
  4  5  1  0
  5  6  1  1
  6  7  2  0
  8  9  1  0
  8  6  1  0
  9 15  1  0
 10 11  1  0
  9 10  1  1
 11 12  1  0
 13 12  1  0
 14 13  1  0
 15 16  2  0
 15 24  1  0
 17 18  1  0
 18 19  2  0
 18 28  1  0
 19 20  1  0
 20 21  2  0
 21 22  1  0
 23 22  1  1
 23 25  1  0
 24 23  1  0
 25 29  2  0
 25 26  1  0
 27 21  1  0
 28 27  2  0
M  END
$$$$
