GKD.pdb
     RDKit          3D

 22 21  0  0  1  0  0  0  0  0999 V2000
    5.0119  -19.0084   22.4875 N   0  0  0  0  0  0  0  0  0  0  0  0
    5.2654  -17.6657   22.9207 C   0  0  0  0  0  0  0  0  0  0  0  0
    6.5537  -17.1404   22.3430 C   0  0  0  0  0  0  0  0  0  0  0  0
    7.3164  -17.8661   21.6597 O   0  0  0  0  0  0  0  0  0  0  0  0
    6.9123  -15.7972   22.5767 N   0  0  0  0  0  0  0  0  0  0  0  0
    8.1419  -15.1937   21.9869 C   0  0  1  0  0  0  0  0  0  0  0  0
    7.7720  -13.7623   21.7585 C   0  0  0  0  0  0  0  0  0  0  0  0
    7.1397  -13.4278   20.4602 C   0  0  0  0  0  0  0  0  0  0  0  0
    8.1149  -13.4920   19.2965 C   0  0  0  0  0  0  0  0  0  0  0  0
    7.4345  -13.1315   17.9826 C   0  0  0  0  0  0  0  0  0  0  0  0
    8.4595  -13.2202   16.9524 N   0  0  0  0  0  0  0  0  0  0  0  0
    9.2065  -15.4270   22.9718 C   0  0  0  0  0  0  0  0  0  0  0  0
    8.9963  -15.2217   24.1865 O   0  0  0  0  0  0  0  0  0  0  0  0
   10.4734  -15.8851   22.5772 N   0  0  0  0  0  0  0  0  0  0  0  0
   11.4855  -16.1920   23.6317 C   0  0  1  0  0  0  0  0  0  0  0  0
   11.0985  -17.4754   24.2933 C   0  0  0  0  0  0  0  0  0  0  0  0
   12.0653  -17.8725   25.3093 C   0  0  0  0  0  0  0  0  0  0  0  0
   13.0628  -17.1852   25.5820 O   0  0  0  0  0  0  0  0  0  0  0  0
   12.7807  -16.3677   22.9440 C   0  0  0  0  0  0  0  0  0  0  0  0
   12.8525  -16.5317   21.7059 O   0  0  0  0  0  0  0  0  0  0  0  0
   11.9325  -19.0636   26.0506 O   0  0  0  0  0  0  0  0  0  0  0  0
   13.9483  -16.3447   23.7232 O   0  0  0  0  0  0  0  0  0  0  0  0
  2  1  1  0
  2  3  1  0
  3  4  2  0
  5  3  1  0
  5  6  1  0
  6 12  1  0
  6  7  1  1
  8  7  1  0
  9  8  1  0
  9 10  1  0
 10 11  1  0
 12 13  2  0
 14 12  1  0
 14 15  1  0
 15 19  1  0
 15 16  1  6
 17 18  2  0
 17 16  1  0
 19 20  2  0
 19 22  1  0
 21 17  1  0
M  END
$$$$
