GKD.pdb
     RDKit          3D

 22 21  0  0  1  0  0  0  0  0999 V2000
    8.0308  -19.4778   18.7368 N   0  0  0  0  0  0  0  0  0  0  0  0
    8.0775  -18.8002   19.9991 C   0  0  0  0  0  0  0  0  0  0  0  0
    8.8239  -17.4962   19.8909 C   0  0  0  0  0  0  0  0  0  0  0  0
    9.8151  -17.3626   19.1324 O   0  0  0  0  0  0  0  0  0  0  0  0
    8.3975  -16.3963   20.6626 N   0  0  0  0  0  0  0  0  0  0  0  0
    9.1962  -15.1404   20.7569 C   0  0  1  0  0  0  0  0  0  0  0  0
    8.1900  -14.0948   21.1205 C   0  0  0  0  0  0  0  0  0  0  0  0
    7.2884  -13.6226   20.0427 C   0  0  0  0  0  0  0  0  0  0  0  0
    7.9578  -13.6097   18.6785 C   0  0  0  0  0  0  0  0  0  0  0  0
    7.0085  -13.1050   17.6000 C   0  0  0  0  0  0  0  0  0  0  0  0
    7.7309  -13.2028   16.3397 N   0  0  0  0  0  0  0  0  0  0  0  0
   10.2308  -15.4064   21.7652 C   0  0  0  0  0  0  0  0  0  0  0  0
   11.1727  -14.6014   21.9284 O   0  0  0  0  0  0  0  0  0  0  0  0
   10.1858  -16.5591   22.5653 N   0  0  0  0  0  0  0  0  0  0  0  0
   11.2660  -16.7743   23.5741 C   0  0  1  0  0  0  0  0  0  0  0  0
   10.6976  -17.5658   24.7076 C   0  0  0  0  0  0  0  0  0  0  0  0
   11.6993  -17.8415   25.7299 C   0  0  0  0  0  0  0  0  0  0  0  0
   12.8337  -17.3374   25.7018 O   0  0  0  0  0  0  0  0  0  0  0  0
   12.3225  -17.5631   22.9084 C   0  0  0  0  0  0  0  0  0  0  0  0
   12.0639  -18.6143   22.2815 O   0  0  0  0  0  0  0  0  0  0  0  0
   11.4472  -18.6989   26.8195 O   0  0  0  0  0  0  0  0  0  0  0  0
   13.6444  -17.0984   22.9951 O   0  0  0  0  0  0  0  0  0  0  0  0
  2  1  1  0
  2  3  1  0
  3  4  2  0
  5  3  1  0
  5  6  1  0
  6 12  1  0
  6  7  1  1
  8  7  1  0
  9  8  1  0
  9 10  1  0
 10 11  1  0
 12 13  2  0
 14 12  1  0
 14 15  1  0
 15 19  1  0
 15 16  1  1
 17 18  2  0
 17 16  1  0
 19 20  2  0
 19 22  1  0
 21 17  1  0
M  END
$$$$
