GKD.pdb
     RDKit          3D

 22 21  0  0  1  0  0  0  0  0999 V2000
    8.3371  -19.2746   18.6324 N   0  0  0  0  0  0  0  0  0  0  0  0
    7.5709  -18.6121   19.6466 C   0  0  0  0  0  0  0  0  0  0  0  0
    8.3715  -17.5221   20.3102 C   0  0  0  0  0  0  0  0  0  0  0  0
    9.5867  -17.3435   20.0517 O   0  0  0  0  0  0  0  0  0  0  0  0
    7.7385  -16.6802   21.2470 N   0  0  0  0  0  0  0  0  0  0  0  0
    8.4856  -15.6289   21.9958 C   0  0  1  0  0  0  0  0  0  0  0  0
    7.4391  -14.6203   22.3501 C   0  0  0  0  0  0  0  0  0  0  0  0
    6.8970  -13.7941   21.2452 C   0  0  0  0  0  0  0  0  0  0  0  0
    7.9275  -13.5040   20.1667 C   0  0  0  0  0  0  0  0  0  0  0  0
    7.3494  -12.6170   19.0720 C   0  0  0  0  0  0  0  0  0  0  0  0
    8.4148  -12.4190   18.0997 N   0  0  0  0  0  0  0  0  0  0  0  0
    9.1113  -16.3225   23.1295 C   0  0  0  0  0  0  0  0  0  0  0  0
    8.4818  -17.2033   23.7538 O   0  0  0  0  0  0  0  0  0  0  0  0
   10.4207  -16.0183   23.5341 N   0  0  0  0  0  0  0  0  0  0  0  0
   11.0167  -16.7840   24.6694 C   0  0  1  0  0  0  0  0  0  0  0  0
   12.4906  -16.5354   24.6798 C   0  0  0  0  0  0  0  0  0  0  0  0
   13.1181  -16.9550   23.4329 C   0  0  0  0  0  0  0  0  0  0  0  0
   12.8912  -18.0599   22.9137 O   0  0  0  0  0  0  0  0  0  0  0  0
   10.4212  -16.2449   25.9088 C   0  0  0  0  0  0  0  0  0  0  0  0
   10.7087  -16.7092   27.0343 O   0  0  0  0  0  0  0  0  0  0  0  0
   14.0246  -16.1342   22.7325 O   0  0  0  0  0  0  0  0  0  0  0  0
    9.5116  -15.1817   25.7939 O   0  0  0  0  0  0  0  0  0  0  0  0
  2  1  1  0
  2  3  1  0
  3  4  2  0
  5  3  1  0
  5  6  1  0
  6 12  1  0
  6  7  1  1
  8  7  1  0
  9  8  1  0
  9 10  1  0
 10 11  1  0
 12 13  2  0
 14 12  1  0
 14 15  1  0
 15 19  1  0
 15 16  1  1
 17 18  2  0
 17 16  1  0
 19 20  2  0
 19 22  1  0
 21 17  1  0
M  END
$$$$
