GKD.pdb
     RDKit          3D

 22 21  0  0  1  0  0  0  0  0999 V2000
    9.2601  -19.6891   16.7333 N   0  0  0  0  0  0  0  0  0  0  0  0
    8.5978  -19.0435   17.8284 C   0  0  0  0  0  0  0  0  0  0  0  0
    9.4217  -17.9039   18.3687 C   0  0  0  0  0  0  0  0  0  0  0  0
   10.5755  -17.6602   17.9388 O   0  0  0  0  0  0  0  0  0  0  0  0
    8.8820  -17.0894   19.3848 N   0  0  0  0  0  0  0  0  0  0  0  0
    9.6421  -15.9467   19.9685 C   0  0  1  0  0  0  0  0  0  0  0  0
    8.6005  -14.8995   20.2063 C   0  0  0  0  0  0  0  0  0  0  0  0
    8.0649  -14.1981   19.0152 C   0  0  0  0  0  0  0  0  0  0  0  0
    7.0021  -13.1701   19.3657 C   0  0  0  0  0  0  0  0  0  0  0  0
    6.4649  -12.4810   18.1184 C   0  0  0  0  0  0  0  0  0  0  0  0
    5.4327  -11.5596   18.5717 N   0  0  0  0  0  0  0  0  0  0  0  0
   10.2941  -16.4810   21.1715 C   0  0  0  0  0  0  0  0  0  0  0  0
    9.7786  -17.4322   21.7972 O   0  0  0  0  0  0  0  0  0  0  0  0
   11.5026  -15.9436   21.6421 N   0  0  0  0  0  0  0  0  0  0  0  0
   12.2374  -16.6682   22.7217 C   0  0  1  0  0  0  0  0  0  0  0  0
   13.6944  -16.3647   22.5820 C   0  0  0  0  0  0  0  0  0  0  0  0
   14.4781  -16.9743   23.6492 C   0  0  0  0  0  0  0  0  0  0  0  0
   14.2609  -18.1264   24.0582 O   0  0  0  0  0  0  0  0  0  0  0  0
   11.7474  -16.1317   24.0076 C   0  0  0  0  0  0  0  0  0  0  0  0
   11.0804  -15.0751   24.0695 O   0  0  0  0  0  0  0  0  0  0  0  0
   15.5354  -16.2967   24.2885 O   0  0  0  0  0  0  0  0  0  0  0  0
   12.0506  -16.8462   25.1775 O   0  0  0  0  0  0  0  0  0  0  0  0
  2  1  1  0
  2  3  1  0
  3  4  2  0
  5  3  1  0
  5  6  1  0
  6 12  1  0
  6  7  1  1
  8  7  1  0
  9  8  1  0
  9 10  1  0
 10 11  1  0
 12 13  2  0
 14 12  1  0
 14 15  1  0
 15 19  1  0
 15 16  1  6
 17 18  2  0
 17 16  1  0
 19 20  2  0
 19 22  1  0
 21 17  1  0
M  END
$$$$
