GKD.pdb
     RDKit          3D

 22 21  0  0  1  0  0  0  0  0999 V2000
   13.3429  -18.2225   16.5137 N   0  0  0  0  0  0  0  0  0  0  0  0
   13.3605  -19.0668   17.6720 C   0  0  0  0  0  0  0  0  0  0  0  0
   12.5026  -18.5001   18.7729 C   0  0  0  0  0  0  0  0  0  0  0  0
   12.3600  -17.2630   18.9298 O   0  0  0  0  0  0  0  0  0  0  0  0
   11.8423  -19.3834   19.6509 N   0  0  0  0  0  0  0  0  0  0  0  0
   11.1076  -18.8985   20.8547 C   0  0  1  0  0  0  0  0  0  0  0  0
   10.0383  -19.9230   21.0666 C   0  0  0  0  0  0  0  0  0  0  0  0
    9.1660  -19.7523   22.2529 C   0  0  0  0  0  0  0  0  0  0  0  0
    8.1452  -20.8685   22.3987 C   0  0  0  0  0  0  0  0  0  0  0  0
    7.3822  -20.7539   23.7116 C   0  0  0  0  0  0  0  0  0  0  0  0
    6.4895  -21.9027   23.7686 N   0  0  0  0  0  0  0  0  0  0  0  0
   12.1158  -18.8010   21.9186 C   0  0  0  0  0  0  0  0  0  0  0  0
   12.7665  -19.8106   22.2638 O   0  0  0  0  0  0  0  0  0  0  0  0
   12.3732  -17.5822   22.5658 N   0  0  0  0  0  0  0  0  0  0  0  0
   13.4148  -17.5443   23.6356 C   0  0  1  0  0  0  0  0  0  0  0  0
   14.0270  -16.1806   23.6454 C   0  0  0  0  0  0  0  0  0  0  0  0
   15.1068  -16.0661   22.6730 C   0  0  0  0  0  0  0  0  0  0  0  0
   15.6190  -17.0578   22.1289 O   0  0  0  0  0  0  0  0  0  0  0  0
   12.7202  -17.7776   24.9179 C   0  0  0  0  0  0  0  0  0  0  0  0
   11.5860  -17.3030   25.1490 O   0  0  0  0  0  0  0  0  0  0  0  0
   15.6420  -14.8216   22.2849 O   0  0  0  0  0  0  0  0  0  0  0  0
   13.3711  -18.5578   25.8868 O   0  0  0  0  0  0  0  0  0  0  0  0
  2  1  1  0
  2  3  1  0
  3  4  2  0
  5  3  1  0
  5  6  1  0
  6 12  1  0
  6  7  1  1
  8  7  1  0
  9  8  1  0
  9 10  1  0
 10 11  1  0
 12 13  2  0
 14 12  1  0
 14 15  1  0
 15 19  1  0
 15 16  1  1
 17 18  2  0
 17 16  1  0
 19 20  2  0
 19 22  1  0
 21 17  1  0
M  END
$$$$
