GKD.pdb
     RDKit          3D

 22 21  0  0  1  0  0  0  0  0999 V2000
   11.2246  -19.0216   16.5321 N   0  0  0  0  0  0  0  0  0  0  0  0
   10.3274  -18.7680   17.6209 C   0  0  0  0  0  0  0  0  0  0  0  0
   10.8438  -17.6650   18.5075 C   0  0  0  0  0  0  0  0  0  0  0  0
   11.9691  -17.1405   18.3229 O   0  0  0  0  0  0  0  0  0  0  0  0
   10.0414  -17.2099   19.5734 N   0  0  0  0  0  0  0  0  0  0  0  0
   10.4778  -16.1050   20.4749 C   0  0  1  0  0  0  0  0  0  0  0  0
    9.2276  -15.3217   20.7231 C   0  0  0  0  0  0  0  0  0  0  0  0
    8.6907  -14.5312   19.5898 C   0  0  0  0  0  0  0  0  0  0  0  0
    7.4258  -13.7700   19.9499 C   0  0  0  0  0  0  0  0  0  0  0  0
    6.9423  -12.9161   18.7853 C   0  0  0  0  0  0  0  0  0  0  0  0
    5.6715  -12.3390   19.2001 N   0  0  0  0  0  0  0  0  0  0  0  0
   11.0607  -16.7635   21.6515 C   0  0  0  0  0  0  0  0  0  0  0  0
   10.6339  -17.8769   22.0257 O   0  0  0  0  0  0  0  0  0  0  0  0
   12.1039  -16.1657   22.3761 N   0  0  0  0  0  0  0  0  0  0  0  0
   12.8654  -16.9976   23.3553 C   0  0  1  0  0  0  0  0  0  0  0  0
   14.3104  -16.6264   23.2615 C   0  0  0  0  0  0  0  0  0  0  0  0
   15.1099  -17.3074   24.2723 C   0  0  0  0  0  0  0  0  0  0  0  0
   14.6325  -18.1705   25.0266 O   0  0  0  0  0  0  0  0  0  0  0  0
   12.3577  -16.6505   24.6980 C   0  0  0  0  0  0  0  0  0  0  0  0
   12.8091  -17.1893   25.7329 O   0  0  0  0  0  0  0  0  0  0  0  0
   16.4789  -17.0319   24.4612 O   0  0  0  0  0  0  0  0  0  0  0  0
   11.3416  -15.6859   24.7887 O   0  0  0  0  0  0  0  0  0  0  0  0
  2  1  1  0
  2  3  1  0
  3  4  2  0
  5  3  1  0
  5  6  1  0
  6 12  1  0
  6  7  1  1
  8  7  1  0
  9  8  1  0
  9 10  1  0
 10 11  1  0
 12 13  2  0
 14 12  1  0
 14 15  1  0
 15 19  1  0
 15 16  1  1
 17 18  2  0
 17 16  1  0
 19 20  2  0
 19 22  1  0
 21 17  1  0
M  END
$$$$
