GKD.pdb
     RDKit          3D

 22 21  0  0  1  0  0  0  0  0999 V2000
    4.9700  -19.7233   22.9166 N   0  0  0  0  0  0  0  0  0  0  0  0
    5.3342  -18.4691   23.5075 C   0  0  0  0  0  0  0  0  0  0  0  0
    6.3867  -17.7664   22.6903 C   0  0  0  0  0  0  0  0  0  0  0  0
    7.0573  -18.3689   21.8170 O   0  0  0  0  0  0  0  0  0  0  0  0
    6.6248  -16.3950   22.9129 N   0  0  0  0  0  0  0  0  0  0  0  0
    7.6719  -15.6430   22.1629 C   0  0  1  0  0  0  0  0  0  0  0  0
    7.1470  -14.2432   22.1087 C   0  0  0  0  0  0  0  0  0  0  0  0
    7.8635  -13.2876   21.2306 C   0  0  0  0  0  0  0  0  0  0  0  0
    7.9503  -13.7632   19.7900 C   0  0  0  0  0  0  0  0  0  0  0  0
    8.6731  -12.7486   18.9140 C   0  0  0  0  0  0  0  0  0  0  0  0
    8.6733  -13.2978   17.5655 N   0  0  0  0  0  0  0  0  0  0  0  0
    8.9130  -15.8287   22.9263 C   0  0  0  0  0  0  0  0  0  0  0  0
    8.9670  -15.4978   24.1303 O   0  0  0  0  0  0  0  0  0  0  0  0
   10.0575  -16.3801   22.3291 N   0  0  0  0  0  0  0  0  0  0  0  0
   11.3105  -16.4789   23.1359 C   0  0  1  0  0  0  0  0  0  0  0  0
   11.6928  -17.9207   23.2329 C   0  0  0  0  0  0  0  0  0  0  0  0
   11.0691  -18.5691   24.3798 C   0  0  0  0  0  0  0  0  0  0  0  0
   10.9110  -17.9891   25.4663 O   0  0  0  0  0  0  0  0  0  0  0  0
   12.3560  -15.7447   22.3948 C   0  0  0  0  0  0  0  0  0  0  0  0
   12.2111  -15.4245   21.1942 O   0  0  0  0  0  0  0  0  0  0  0  0
   10.6031  -19.8982   24.3322 O   0  0  0  0  0  0  0  0  0  0  0  0
   13.5344  -15.4074   23.0793 O   0  0  0  0  0  0  0  0  0  0  0  0
  2  1  1  0
  2  3  1  0
  3  4  2  0
  5  3  1  0
  5  6  1  0
  6 12  1  0
  6  7  1  1
  8  7  1  0
  9  8  1  0
  9 10  1  0
 10 11  1  0
 12 13  2  0
 14 12  1  0
 14 15  1  0
 15 19  1  0
 15 16  1  6
 17 18  2  0
 17 16  1  0
 19 20  2  0
 19 22  1  0
 21 17  1  0
M  END
$$$$
