GKD.pdb
     RDKit          3D

 22 21  0  0  1  0  0  0  0  0999 V2000
   11.2886  -19.1948   16.9106 N   0  0  0  0  0  0  0  0  0  0  0  0
   10.7978  -19.2283   18.2570 C   0  0  0  0  0  0  0  0  0  0  0  0
   11.2922  -18.0448   19.0472 C   0  0  0  0  0  0  0  0  0  0  0  0
   12.4542  -17.5926   18.9035 O   0  0  0  0  0  0  0  0  0  0  0  0
   10.4261  -17.4289   19.9733 N   0  0  0  0  0  0  0  0  0  0  0  0
   10.8776  -16.3170   20.8587 C   0  0  1  0  0  0  0  0  0  0  0  0
    9.6390  -15.5115   21.0930 C   0  0  0  0  0  0  0  0  0  0  0  0
    9.0786  -14.7823   19.9304 C   0  0  0  0  0  0  0  0  0  0  0  0
    7.7989  -14.0345   20.2655 C   0  0  0  0  0  0  0  0  0  0  0  0
    7.3468  -13.1609   19.1030 C   0  0  0  0  0  0  0  0  0  0  0  0
    6.0937  -12.5453   19.5160 N   0  0  0  0  0  0  0  0  0  0  0  0
   11.4490  -16.9663   22.0460 C   0  0  0  0  0  0  0  0  0  0  0  0
   10.9529  -18.0264   22.4839 O   0  0  0  0  0  0  0  0  0  0  0  0
   12.5581  -16.4190   22.7102 N   0  0  0  0  0  0  0  0  0  0  0  0
   13.1355  -17.1593   23.8717 C   0  0  1  0  0  0  0  0  0  0  0  0
   14.6232  -17.0223   23.8220 C   0  0  0  0  0  0  0  0  0  0  0  0
   15.2156  -17.9172   22.8356 C   0  0  0  0  0  0  0  0  0  0  0  0
   14.7293  -19.0283   22.5697 O   0  0  0  0  0  0  0  0  0  0  0  0
   12.6248  -16.5048   25.0932 C   0  0  0  0  0  0  0  0  0  0  0  0
   12.9092  -16.9279   26.2357 O   0  0  0  0  0  0  0  0  0  0  0  0
   16.3802  -17.5810   22.1170 O   0  0  0  0  0  0  0  0  0  0  0  0
   11.8010  -15.3782   24.9412 O   0  0  0  0  0  0  0  0  0  0  0  0
  2  1  1  0
  2  3  1  0
  3  4  2  0
  5  3  1  0
  5  6  1  0
  6 12  1  0
  6  7  1  1
  8  7  1  0
  9  8  1  0
  9 10  1  0
 10 11  1  0
 12 13  2  0
 14 12  1  0
 14 15  1  0
 15 19  1  0
 15 16  1  1
 17 18  2  0
 17 16  1  0
 19 20  2  0
 19 22  1  0
 21 17  1  0
M  END
$$$$
