IIS.pdb
     RDKit          3D

 23 22  0  0  1  0  0  0  0  0999 V2000
   16.4558  -13.1754  -20.6554 C   0  0  0  0  0  0  0  0  0  0  0  0
   17.6555  -13.2564  -19.7768 C   0  0  0  0  0  0  0  0  0  0  0  0
   17.8369  -12.0825  -18.8435 C   0  0  2  0  0  0  0  0  0  0  0  0
   17.8527  -10.8498  -19.6823 C   0  0  0  0  0  0  0  0  0  0  0  0
   19.0601  -12.2989  -17.9985 C   0  0  2  0  0  0  0  0  0  0  0  0
   18.8305  -13.5629  -17.2763 N   0  0  0  0  0  0  0  0  0  0  0  0
   19.2505  -11.2613  -16.9554 C   0  0  0  0  0  0  0  0  0  0  0  0
   18.4507  -11.1580  -15.9616 O   0  0  0  0  0  0  0  0  0  0  0  0
   23.5216  -10.8815  -14.2445 C   0  0  0  0  0  0  0  0  0  0  0  0
   22.0481  -10.8088  -14.6591 C   0  0  0  0  0  0  0  0  0  0  0  0
   21.8697   -9.4873  -15.3513 C   0  0  2  0  0  0  0  0  0  0  0  0
   22.0857   -8.3927  -14.3040 C   0  0  0  0  0  0  0  0  0  0  0  0
   20.4792   -9.3087  -15.9234 C   0  0  2  0  0  0  0  0  0  0  0  0
   20.3032  -10.3081  -16.9502 N   0  0  0  0  0  0  0  0  0  0  0  0
   20.3697   -7.9333  -16.4952 C   0  0  0  0  0  0  0  0  0  0  0  0
   21.1387   -7.5218  -17.3938 O   0  0  0  0  0  0  0  0  0  0  0  0
   17.3876   -4.1479  -16.9229 O   0  0  0  0  0  0  0  0  0  0  0  0
   17.6059   -5.3597  -16.2639 C   0  0  0  0  0  0  0  0  0  0  0  0
   19.0078   -5.7899  -16.5421 C   0  0  2  0  0  0  0  0  0  0  0  0
   19.3694   -7.0711  -16.0081 N   0  0  0  0  0  0  0  0  0  0  0  0
   20.0217   -4.7216  -16.2883 C   0  0  0  0  0  0  0  0  0  0  0  0
   20.6000   -4.7240  -15.1801 O   0  0  0  0  0  0  0  0  0  0  0  0
   20.2808   -3.7878  -17.2549 O   0  0  0  0  0  0  0  0  0  0  0  0
  1  2  1  0
  2  3  1  0
  3  5  1  0
  3  4  1  6
  5  7  1  0
  5  6  1  1
  7  8  2  0
  9 10  1  0
 10 11  1  0
 11 13  1  0
 11 12  1  1
 13 14  1  6
 14  7  1  0
 15 16  2  0
 15 13  1  0
 17 18  1  0
 19 18  1  1
 19 20  1  0
 19 21  1  0
 20 15  1  0
 21 23  1  0
 22 21  2  0
M  END
$$$$
