IIS.pdb
     RDKit          3D

 23 22  0  0  1  0  0  0  0  0999 V2000
   19.6128  -18.5495  -15.7382 C   0  0  0  0  0  0  0  0  0  0  0  0
   20.8908  -19.1208  -16.2464 C   0  0  0  0  0  0  0  0  0  0  0  0
   21.7789  -19.7275  -15.1856 C   0  0  2  0  0  0  0  0  0  0  0  0
   21.8956  -18.7295  -14.0838 C   0  0  0  0  0  0  0  0  0  0  0  0
   23.0794  -20.1538  -15.8051 C   0  0  2  0  0  0  0  0  0  0  0  0
   22.7379  -21.2250  -16.7581 N   0  0  0  0  0  0  0  0  0  0  0  0
   24.0277  -20.7562  -14.8362 C   0  0  0  0  0  0  0  0  0  0  0  0
   23.7914  -21.8866  -14.2844 O   0  0  0  0  0  0  0  0  0  0  0  0
   28.8289  -20.5686  -15.9727 C   0  0  0  0  0  0  0  0  0  0  0  0
   27.8684  -21.3899  -15.1061 C   0  0  0  0  0  0  0  0  0  0  0  0
   27.5487  -20.5396  -13.9093 C   0  0  2  0  0  0  0  0  0  0  0  0
   28.4821  -20.9770  -12.7784 C   0  0  0  0  0  0  0  0  0  0  0  0
   26.1249  -20.7194  -13.4264 C   0  0  2  0  0  0  0  0  0  0  0  0
   25.2537  -20.1630  -14.4340 N   0  0  0  0  0  0  0  0  0  0  0  0
   25.9651  -19.9990  -12.1279 C   0  0  0  0  0  0  0  0  0  0  0  0
   26.2628  -18.7898  -11.9955 O   0  0  0  0  0  0  0  0  0  0  0  0
   23.8974  -21.9330   -8.9648 O   0  0  0  0  0  0  0  0  0  0  0  0
   23.9675  -20.5412   -9.0568 C   0  0  0  0  0  0  0  0  0  0  0  0
   25.2707  -20.1861   -9.6920 C   0  0  2  0  0  0  0  0  0  0  0  0
   25.4636  -20.7019  -11.0165 N   0  0  0  0  0  0  0  0  0  0  0  0
   26.4469  -20.3806   -8.7907 C   0  0  0  0  0  0  0  0  0  0  0  0
   27.3593  -21.1386   -9.1852 O   0  0  0  0  0  0  0  0  0  0  0  0
   26.4896  -19.7395   -7.5822 O   0  0  0  0  0  0  0  0  0  0  0  0
  1  2  1  0
  2  3  1  0
  3  5  1  0
  3  4  1  1
  5  7  1  0
  5  6  1  6
  7  8  2  0
  9 10  1  0
 10 11  1  0
 11 13  1  0
 11 12  1  1
 13 14  1  6
 14  7  1  0
 15 16  2  0
 15 13  1  0
 17 18  1  0
 19 18  1  1
 19 20  1  0
 19 21  1  0
 20 15  1  0
 21 23  1  0
 22 21  2  0
M  END
$$$$
