IIS.pdb
     RDKit          3D

 23 22  0  0  1  0  0  0  0  0999 V2000
   27.7387  -15.3372  -15.7599 C   0  0  0  0  0  0  0  0  0  0  0  0
   26.2671  -15.4473  -15.5600 C   0  0  0  0  0  0  0  0  0  0  0  0
   25.4787  -14.2284  -15.9777 C   0  0  2  0  0  0  0  0  0  0  0  0
   25.9861  -13.0782  -15.1759 C   0  0  0  0  0  0  0  0  0  0  0  0
   24.0096  -14.5097  -15.8368 C   0  0  2  0  0  0  0  0  0  0  0  0
   23.7610  -15.7407  -16.6082 N   0  0  0  0  0  0  0  0  0  0  0  0
   23.1461  -13.4667  -16.4428 C   0  0  0  0  0  0  0  0  0  0  0  0
   23.2104  -13.1875  -17.6902 O   0  0  0  0  0  0  0  0  0  0  0  0
   18.7663  -14.1525  -16.5774 C   0  0  0  0  0  0  0  0  0  0  0  0
   19.6101  -13.0927  -17.2936 C   0  0  0  0  0  0  0  0  0  0  0  0
   19.9558  -12.0594  -16.2589 C   0  0  2  0  0  0  0  0  0  0  0  0
   19.0995  -10.8242  -16.5461 C   0  0  0  0  0  0  0  0  0  0  0  0
   21.4084  -11.6359  -16.3166 C   0  0  2  0  0  0  0  0  0  0  0  0
   22.1911  -12.6963  -15.7277 N   0  0  0  0  0  0  0  0  0  0  0  0
   21.5678  -10.3661  -15.5466 C   0  0  0  0  0  0  0  0  0  0  0  0
   21.3989  -10.3127  -14.3069 O   0  0  0  0  0  0  0  0  0  0  0  0
   21.9512   -6.5602  -17.5302 O   0  0  0  0  0  0  0  0  0  0  0  0
   22.9016   -6.9506  -16.5842 C   0  0  0  0  0  0  0  0  0  0  0  0
   22.2547   -7.9233  -15.6551 C   0  0  2  0  0  0  0  0  0  0  0  0
   21.9194   -9.1909  -16.2366 N   0  0  0  0  0  0  0  0  0  0  0  0
   21.1577   -7.3261  -14.8343 C   0  0  0  0  0  0  0  0  0  0  0  0
   19.9815   -7.6213  -15.1376 O   0  0  0  0  0  0  0  0  0  0  0  0
   21.4651   -6.4873  -13.7973 O   0  0  0  0  0  0  0  0  0  0  0  0
  1  2  1  0
  2  3  1  0
  3  5  1  0
  3  4  1  1
  5  7  1  0
  5  6  1  6
  7  8  2  0
  9 10  1  0
 10 11  1  0
 11 13  1  0
 11 12  1  6
 13 14  1  1
 14  7  1  0
 15 16  2  0
 15 13  1  0
 17 18  1  0
 19 18  1  6
 19 20  1  0
 19 21  1  0
 20 15  1  0
 21 23  1  0
 22 21  2  0
M  END
$$$$
