IIS.pdb
     RDKit          3D

 23 22  0  0  1  0  0  0  0  0999 V2000
   25.3578  -15.7027  -17.9457 C   0  0  0  0  0  0  0  0  0  0  0  0
   26.4842  -16.4831  -17.3629 C   0  0  0  0  0  0  0  0  0  0  0  0
   26.0680  -17.5875  -16.4200 C   0  0  2  0  0  0  0  0  0  0  0  0
   25.2303  -16.9660  -15.3544 C   0  0  0  0  0  0  0  0  0  0  0  0
   27.2880  -18.3166  -15.9330 C   0  0  2  0  0  0  0  0  0  0  0  0
   27.9346  -18.8663  -17.1379 N   0  0  0  0  0  0  0  0  0  0  0  0
   26.9762  -19.4816  -15.0691 C   0  0  0  0  0  0  0  0  0  0  0  0
   26.4526  -20.5471  -15.5473 O   0  0  0  0  0  0  0  0  0  0  0  0
   30.0895  -20.9623  -10.9341 C   0  0  0  0  0  0  0  0  0  0  0  0
   29.1812  -21.0495  -12.1652 C   0  0  0  0  0  0  0  0  0  0  0  0
   27.7930  -20.7283  -11.6884 C   0  0  2  0  0  0  0  0  0  0  0  0
   27.3469  -21.8767  -10.7807 C   0  0  0  0  0  0  0  0  0  0  0  0
   26.7941  -20.6228  -12.8215 C   0  0  2  0  0  0  0  0  0  0  0  0
   27.2180  -19.5351  -13.6708 N   0  0  0  0  0  0  0  0  0  0  0  0
   25.4431  -20.3525  -12.2451 C   0  0  0  0  0  0  0  0  0  0  0  0
   25.1433  -19.2471  -11.7387 O   0  0  0  0  0  0  0  0  0  0  0  0
   21.5979  -20.6190  -10.1572 O   0  0  0  0  0  0  0  0  0  0  0  0
   22.9554  -20.5981  -10.4845 C   0  0  0  0  0  0  0  0  0  0  0  0
   23.1236  -21.2861  -11.7984 C   0  0  2  0  0  0  0  0  0  0  0  0
   24.4747  -21.3736  -12.2719 N   0  0  0  0  0  0  0  0  0  0  0  0
   22.1474  -20.8366  -12.8371 C   0  0  0  0  0  0  0  0  0  0  0  0
   22.6077  -20.4177  -13.9212 O   0  0  0  0  0  0  0  0  0  0  0  0
   20.8049  -20.8917  -12.5763 O   0  0  0  0  0  0  0  0  0  0  0  0
  1  2  1  0
  2  3  1  0
  3  5  1  0
  3  4  1  1
  5  7  1  0
  5  6  1  6
  7  8  2  0
  9 10  1  0
 10 11  1  0
 11 13  1  0
 11 12  1  1
 13 14  1  6
 14  7  1  0
 15 16  2  0
 15 13  1  0
 17 18  1  0
 19 18  1  1
 19 20  1  0
 19 21  1  0
 20 15  1  0
 21 23  1  0
 22 21  2  0
M  END
$$$$
