IIS.pdb
     RDKit          3D

 23 22  0  0  1  0  0  0  0  0999 V2000
   20.3961  -17.0769  -17.9833 C   0  0  0  0  0  0  0  0  0  0  0  0
   21.4185  -16.9948  -16.9037 C   0  0  0  0  0  0  0  0  0  0  0  0
   22.1870  -18.2725  -16.6613 C   0  0  2  0  0  0  0  0  0  0  0  0
   21.1855  -19.3592  -16.4627 C   0  0  0  0  0  0  0  0  0  0  0  0
   23.1483  -18.0708  -15.5244 C   0  0  2  0  0  0  0  0  0  0  0  0
   24.1371  -17.0889  -16.0044 N   0  0  0  0  0  0  0  0  0  0  0  0
   23.9188  -19.2899  -15.1769 C   0  0  0  0  0  0  0  0  0  0  0  0
   24.7157  -19.8384  -16.0150 O   0  0  0  0  0  0  0  0  0  0  0  0
   25.7323  -20.3208  -10.1659 C   0  0  0  0  0  0  0  0  0  0  0  0
   25.6878  -20.2159  -11.6940 C   0  0  0  0  0  0  0  0  0  0  0  0
   24.7488  -21.2910  -12.1631 C   0  0  2  0  0  0  0  0  0  0  0  0
   25.4154  -22.6367  -11.8697 C   0  0  0  0  0  0  0  0  0  0  0  0
   24.4802  -21.2255  -13.6519 C   0  0  2  0  0  0  0  0  0  0  0  0
   23.8558  -19.9523  -13.9223 N   0  0  0  0  0  0  0  0  0  0  0  0
   23.5740  -22.3526  -14.0249 C   0  0  0  0  0  0  0  0  0  0  0  0
   22.4691  -22.5332  -13.4639 O   0  0  0  0  0  0  0  0  0  0  0  0
   24.2955  -24.2849  -17.6164 O   0  0  0  0  0  0  0  0  0  0  0  0
   23.0415  -24.4002  -17.0125 C   0  0  0  0  0  0  0  0  0  0  0  0
   23.2374  -24.3682  -15.5332 C   0  0  2  0  0  0  0  0  0  0  0  0
   23.9748  -23.2410  -15.0404 N   0  0  0  0  0  0  0  0  0  0  0  0
   23.6794  -25.6763  -14.9609 C   0  0  0  0  0  0  0  0  0  0  0  0
   22.9747  -26.6805  -15.2003 O   0  0  0  0  0  0  0  0  0  0  0  0
   24.8179  -25.7360  -14.2035 O   0  0  0  0  0  0  0  0  0  0  0  0
  1  2  1  0
  2  3  1  0
  3  5  1  0
  3  4  1  1
  5  7  1  0
  5  6  1  6
  7  8  2  0
  9 10  1  0
 10 11  1  0
 11 13  1  0
 11 12  1  6
 13 14  1  1
 14  7  1  0
 15 16  2  0
 15 13  1  0
 17 18  1  0
 19 18  1  6
 19 20  1  0
 19 21  1  0
 20 15  1  0
 21 23  1  0
 22 21  2  0
M  END
$$$$
