IIS.pdb
     RDKit          3D

 23 22  0  0  1  0  0  0  0  0999 V2000
   18.6282  -13.4156  -16.9469 C   0  0  0  0  0  0  0  0  0  0  0  0
   18.0877  -13.3908  -15.5594 C   0  0  0  0  0  0  0  0  0  0  0  0
   17.3218  -12.1390  -15.2009 C   0  0  2  0  0  0  0  0  0  0  0  0
   18.2269  -10.9807  -15.4512 C   0  0  0  0  0  0  0  0  0  0  0  0
   16.8023  -12.2549  -13.7959 C   0  0  2  0  0  0  0  0  0  0  0  0
   15.9984  -13.4898  -13.7659 N   0  0  0  0  0  0  0  0  0  0  0  0
   15.8801  -11.1578  -13.4131 C   0  0  0  0  0  0  0  0  0  0  0  0
   14.7371  -11.0198  -13.9723 O   0  0  0  0  0  0  0  0  0  0  0  0
   12.9393   -8.6764   -9.2569 C   0  0  0  0  0  0  0  0  0  0  0  0
   13.9772   -8.0847  -10.2165 C   0  0  0  0  0  0  0  0  0  0  0  0
   14.8178   -9.2364  -10.6904 C   0  0  2  0  0  0  0  0  0  0  0  0
   16.0578   -9.2927   -9.7956 C   0  0  0  0  0  0  0  0  0  0  0  0
   15.2889   -9.0686  -12.1197 C   0  0  2  0  0  0  0  0  0  0  0  0
   16.1587  -10.1807  -12.4210 N   0  0  0  0  0  0  0  0  0  0  0  0
   16.0231   -7.7729  -12.2327 C   0  0  0  0  0  0  0  0  0  0  0  0
   17.1357   -7.5875  -11.6887 O   0  0  0  0  0  0  0  0  0  0  0  0
   15.6988   -5.4155  -15.5735 O   0  0  0  0  0  0  0  0  0  0  0  0
   16.6935   -5.3400  -14.5961 C   0  0  0  0  0  0  0  0  0  0  0  0
   16.0367   -5.4502  -13.2603 C   0  0  2  0  0  0  0  0  0  0  0  0
   15.4458   -6.7257  -12.9751 N   0  0  0  0  0  0  0  0  0  0  0  0
   15.1556   -4.2889  -12.9305 C   0  0  0  0  0  0  0  0  0  0  0  0
   13.9378   -4.5157  -12.7624 O   0  0  0  0  0  0  0  0  0  0  0  0
   15.6948   -3.0351  -12.8275 O   0  0  0  0  0  0  0  0  0  0  0  0
  1  2  1  0
  2  3  1  0
  3  5  1  0
  3  4  1  1
  5  7  1  0
  5  6  1  6
  7  8  2  0
  9 10  1  0
 10 11  1  0
 11 13  1  0
 11 12  1  1
 13 14  1  1
 14  7  1  0
 15 16  2  0
 15 13  1  0
 17 18  1  0
 19 18  1  6
 19 20  1  0
 19 21  1  0
 20 15  1  0
 21 23  1  0
 22 21  2  0
M  END
$$$$
