LTL.pdb
     RDKit          3D

 24 23  0  0  1  0  0  0  0  0999 V2000
   31.0144   -7.1293  -21.4255 C   0  0  0  0  0  0  0  0  0  0  0  0
   29.8592   -7.0222  -20.4781 C   0  0  2  0  0  0  0  0  0  0  0  0
   28.9206   -5.9533  -20.9836 C   0  0  0  0  0  0  0  0  0  0  0  0
   30.2758   -6.8115  -19.0560 C   0  0  0  0  0  0  0  0  0  0  0  0
   31.0985   -7.9608  -18.5173 C   0  0  2  0  0  0  0  0  0  0  0  0
   30.2362   -9.1150  -18.3452 N   0  0  0  0  0  0  0  0  0  0  0  0
   31.7084   -7.6418  -17.2229 C   0  0  0  0  0  0  0  0  0  0  0  0
   31.0564   -7.7530  -16.1286 O   0  0  0  0  0  0  0  0  0  0  0  0
   34.0413   -9.3846  -15.3087 C   0  0  0  0  0  0  0  0  0  0  0  0
   34.6780   -8.0476  -15.5038 C   0  0  1  0  0  0  0  0  0  0  0  0
   35.6033   -8.0696  -16.5467 O   0  0  0  0  0  0  0  0  0  0  0  0
   33.6580   -6.9484  -15.7661 C   0  0  2  0  0  0  0  0  0  0  0  0
   33.0533   -7.1890  -17.0710 N   0  0  0  0  0  0  0  0  0  0  0  0
   34.2498   -5.6007  -15.6757 C   0  0  0  0  0  0  0  0  0  0  0  0
   34.5537   -5.0017  -16.7384 O   0  0  0  0  0  0  0  0  0  0  0  0
   33.2685   -1.2377  -14.4974 C   0  0  0  0  0  0  0  0  0  0  0  0
   33.2137   -2.3135  -13.3985 C   0  0  2  0  0  0  0  0  0  0  0  0
   32.7145   -1.6000  -12.1604 C   0  0  0  0  0  0  0  0  0  0  0  0
   34.6137   -2.8087  -13.2474 C   0  0  0  0  0  0  0  0  0  0  0  0
   35.1294   -3.6200  -14.3994 C   0  0  2  0  0  0  0  0  0  0  0  0
   34.4988   -4.9338  -14.4487 N   0  0  0  0  0  0  0  0  0  0  0  0
   36.5868   -3.8524  -14.3728 C   0  0  0  0  0  0  0  0  0  0  0  0
   37.4344   -2.9511  -14.6489 O   0  0  0  0  0  0  0  0  0  0  0  0
   37.0802   -5.0884  -14.0375 O   0  0  0  0  0  0  0  0  0  0  0  0
  2  1  1  6
  2  3  1  0
  4  5  1  0
  4  2  1  0
  5  7  1  0
  5  6  1  1
  7  8  2  0
 10  9  1  6
 10 12  1  0
 11 10  1  0
 12 13  1  6
 13  7  1  0
 14 15  2  0
 14 12  1  0
 17 16  1  6
 17 19  1  0
 18 17  1  0
 20 19  1  1
 20 21  1  0
 20 22  1  0
 21 14  1  0
 22 24  1  0
 23 22  2  0
M  END
$$$$
