LTL.pdb
     RDKit          3D

 24 23  0  0  1  0  0  0  0  0999 V2000
   17.1053  -11.2870  -19.0253 C   0  0  0  0  0  0  0  0  0  0  0  0
   16.6780  -11.8338  -17.6980 C   0  0  2  0  0  0  0  0  0  0  0  0
   15.1970  -11.5926  -17.5330 C   0  0  0  0  0  0  0  0  0  0  0  0
   17.4880  -11.3118  -16.5526 C   0  0  0  0  0  0  0  0  0  0  0  0
   18.9704  -11.5498  -16.7356 C   0  0  2  0  0  0  0  0  0  0  0  0
   19.2523  -12.9543  -16.5043 N   0  0  0  0  0  0  0  0  0  0  0  0
   19.7747  -10.7565  -15.8013 C   0  0  0  0  0  0  0  0  0  0  0  0
   19.7417  -10.9682  -14.5408 O   0  0  0  0  0  0  0  0  0  0  0  0
   23.2741  -10.6607  -15.2612 C   0  0  0  0  0  0  0  0  0  0  0  0
   22.9178   -9.2351  -15.5285 C   0  0  1  0  0  0  0  0  0  0  0  0
   23.2203   -8.8700  -16.8398 O   0  0  0  0  0  0  0  0  0  0  0  0
   21.4496   -8.9397  -15.2554 C   0  0  2  0  0  0  0  0  0  0  0  0
   20.6466   -9.7012  -16.2050 N   0  0  0  0  0  0  0  0  0  0  0  0
   21.1471   -7.4975  -15.3135 C   0  0  0  0  0  0  0  0  0  0  0  0
   20.3372   -7.0846  -16.1819 O   0  0  0  0  0  0  0  0  0  0  0  0
   18.0120   -3.4637  -13.9742 C   0  0  0  0  0  0  0  0  0  0  0  0
   19.4947   -3.4613  -14.3854 C   0  0  2  0  0  0  0  0  0  0  0  0
   19.5287   -2.8462  -15.7681 C   0  0  0  0  0  0  0  0  0  0  0  0
   19.9163   -4.8932  -14.3864 C   0  0  0  0  0  0  0  0  0  0  0  0
   21.3927   -5.1216  -14.5261 C   0  0  2  0  0  0  0  0  0  0  0  0
   21.7216   -6.5395  -14.4393 N   0  0  0  0  0  0  0  0  0  0  0  0
   22.2113   -4.4355  -13.5073 C   0  0  0  0  0  0  0  0  0  0  0  0
   22.6692   -5.0217  -12.4807 O   0  0  0  0  0  0  0  0  0  0  0  0
   22.5093   -3.1031  -13.6473 O   0  0  0  0  0  0  0  0  0  0  0  0
  2  1  1  6
  2  3  1  0
  4  5  1  0
  4  2  1  0
  5  7  1  0
  5  6  1  1
  7  8  2  0
 10  9  1  6
 10 12  1  0
 11 10  1  0
 12 13  1  6
 13  7  1  0
 14 15  2  0
 14 12  1  0
 17 16  1  6
 17 19  1  0
 18 17  1  0
 20 19  1  1
 20 21  1  0
 20 22  1  0
 21 14  1  0
 22 24  1  0
 23 22  2  0
M  END
$$$$
