LTL.pdb
     RDKit          3D

 24 23  0  0  1  0  0  0  0  0999 V2000
   23.4128  -25.1065  -16.2532 C   0  0  0  0  0  0  0  0  0  0  0  0
   24.8045  -25.5132  -16.6290 C   0  0  2  0  0  0  0  0  0  0  0  0
   24.9228  -27.0113  -16.4853 C   0  0  0  0  0  0  0  0  0  0  0  0
   25.8636  -24.7672  -15.8792 C   0  0  0  0  0  0  0  0  0  0  0  0
   25.6974  -23.2672  -15.9810 C   0  0  2  0  0  0  0  0  0  0  0  0
   26.1283  -22.8356  -17.2976 N   0  0  0  0  0  0  0  0  0  0  0  0
   26.4945  -22.5558  -14.9770 C   0  0  0  0  0  0  0  0  0  0  0  0
   27.7727  -22.5757  -14.9983 O   0  0  0  0  0  0  0  0  0  0  0  0
   27.2932  -19.2659  -14.6778 C   0  0  0  0  0  0  0  0  0  0  0  0
   26.6486  -19.5555  -13.3619 C   0  0  1  0  0  0  0  0  0  0  0  0
   25.3096  -19.1666  -13.3523 O   0  0  0  0  0  0  0  0  0  0  0  0
   26.7430  -21.0254  -12.9770 C   0  0  2  0  0  0  0  0  0  0  0  0
   25.9287  -21.7947  -13.9104 N   0  0  0  0  0  0  0  0  0  0  0  0
   26.3473  -21.2652  -11.5768 C   0  0  0  0  0  0  0  0  0  0  0  0
   25.4257  -22.0874  -11.3418 O   0  0  0  0  0  0  0  0  0  0  0  0
   27.2141  -18.6604   -6.1322 C   0  0  0  0  0  0  0  0  0  0  0  0
   26.7502  -20.0012   -6.7278 C   0  0  2  0  0  0  0  0  0  0  0  0
   27.3629  -21.0677   -5.8455 C   0  0  0  0  0  0  0  0  0  0  0  0
   27.2880  -20.0328   -8.1199 C   0  0  0  0  0  0  0  0  0  0  0  0
   26.4436  -20.7781   -9.1113 C   0  0  2  0  0  0  0  0  0  0  0  0
   26.9508  -20.6169  -10.4688 N   0  0  0  0  0  0  0  0  0  0  0  0
   25.0282  -20.3601   -9.1374 C   0  0  0  0  0  0  0  0  0  0  0  0
   24.6208  -19.3427   -9.7748 O   0  0  0  0  0  0  0  0  0  0  0  0
   24.0845  -21.0834   -8.4519 O   0  0  0  0  0  0  0  0  0  0  0  0
  2  1  1  1
  2  3  1  0
  4  5  1  0
  4  2  1  0
  5  7  1  0
  5  6  1  6
  7  8  2  0
 10  9  1  6
 10 12  1  0
 11 10  1  0
 12 13  1  6
 13  7  1  0
 14 15  2  0
 14 12  1  0
 17 16  1  1
 17 19  1  0
 18 17  1  0
 20 19  1  1
 20 21  1  0
 20 22  1  0
 21 14  1  0
 22 24  1  0
 23 22  2  0
M  END
$$$$
