LTL.pdb
     RDKit          3D

 24 23  0  0  1  0  0  0  0  0999 V2000
   24.7107  -14.3169  -16.9197 C   0  0  0  0  0  0  0  0  0  0  0  0
   24.9401  -14.9391  -18.2627 C   0  0  2  0  0  0  0  0  0  0  0  0
   24.4861  -13.9683  -19.3260 C   0  0  0  0  0  0  0  0  0  0  0  0
   24.3196  -16.2940  -18.4027 C   0  0  0  0  0  0  0  0  0  0  0  0
   24.6653  -17.2111  -17.2507 C   0  0  2  0  0  0  0  0  0  0  0  0
   25.9252  -17.8710  -17.5380 N   0  0  0  0  0  0  0  0  0  0  0  0
   23.6420  -18.2395  -17.0397 C   0  0  0  0  0  0  0  0  0  0  0  0
   23.4922  -19.2137  -17.8540 O   0  0  0  0  0  0  0  0  0  0  0  0
   23.5783  -20.9346  -16.4847 C   0  0  0  0  0  0  0  0  0  0  0  0
   22.6281  -20.5950  -15.3835 C   0  0  1  0  0  0  0  0  0  0  0  0
   23.2920  -20.4305  -14.1683 O   0  0  0  0  0  0  0  0  0  0  0  0
   21.8148  -19.3428  -15.6802 C   0  0  2  0  0  0  0  0  0  0  0  0
   22.7418  -18.2457  -15.9322 N   0  0  0  0  0  0  0  0  0  0  0  0
   20.8652  -19.0213  -14.5987 C   0  0  0  0  0  0  0  0  0  0  0  0
   21.2954  -18.4416  -13.5694 O   0  0  0  0  0  0  0  0  0  0  0  0
   18.4439  -15.9599  -13.0133 C   0  0  0  0  0  0  0  0  0  0  0  0
   18.1030  -16.6052  -14.3680 C   0  0  2  0  0  0  0  0  0  0  0  0
   17.0708  -15.6958  -14.9994 C   0  0  0  0  0  0  0  0  0  0  0  0
   17.5543  -17.9555  -14.0459 C   0  0  0  0  0  0  0  0  0  0  0  0
   18.5672  -18.9590  -13.5785 C   0  0  2  0  0  0  0  0  0  0  0  0
   19.4817  -19.3303  -14.6518 N   0  0  0  0  0  0  0  0  0  0  0  0
   17.9847  -20.2152  -13.0671 C   0  0  0  0  0  0  0  0  0  0  0  0
   17.1625  -20.2522  -12.1029 O   0  0  0  0  0  0  0  0  0  0  0  0
   18.3269  -21.4149  -13.6390 O   0  0  0  0  0  0  0  0  0  0  0  0
  2  1  1  1
  2  3  1  0
  4  5  1  0
  4  2  1  0
  5  7  1  0
  5  6  1  6
  7  8  2  0
 10  9  1  6
 10 12  1  0
 11 10  1  0
 12 13  1  1
 13  7  1  0
 14 15  2  0
 14 12  1  0
 17 16  1  1
 17 19  1  0
 18 17  1  0
 20 19  1  6
 20 21  1  0
 20 22  1  0
 21 14  1  0
 22 24  1  0
 23 22  2  0
M  END
$$$$
