LTL.pdb
     RDKit          3D

 24 23  0  0  1  0  0  0  0  0999 V2000
   20.0174  -22.6061   -9.7627 C   0  0  0  0  0  0  0  0  0  0  0  0
   18.8439  -23.1281  -10.5332 C   0  0  2  0  0  0  0  0  0  0  0  0
   18.2518  -21.9938  -11.3343 C   0  0  0  0  0  0  0  0  0  0  0  0
   17.8361  -23.8292   -9.6768 C   0  0  0  0  0  0  0  0  0  0  0  0
   18.4273  -25.0055   -8.9320 C   0  0  2  0  0  0  0  0  0  0  0  0
   18.7967  -26.0302   -9.8906 N   0  0  0  0  0  0  0  0  0  0  0  0
   17.4781  -25.5856   -7.9772 C   0  0  0  0  0  0  0  0  0  0  0  0
   16.3548  -26.0650   -8.3554 O   0  0  0  0  0  0  0  0  0  0  0  0
   16.6347  -28.4912   -6.8656 C   0  0  0  0  0  0  0  0  0  0  0  0
   17.0807  -27.7933   -5.6226 C   0  0  1  0  0  0  0  0  0  0  0  0
   18.4431  -27.9805   -5.3923 O   0  0  0  0  0  0  0  0  0  0  0  0
   16.7810  -26.3010   -5.6520 C   0  0  2  0  0  0  0  0  0  0  0  0
   17.7168  -25.6657   -6.5724 N   0  0  0  0  0  0  0  0  0  0  0  0
   16.8323  -25.6919   -4.3100 C   0  0  0  0  0  0  0  0  0  0  0  0
   17.9062  -25.1617   -3.9278 O   0  0  0  0  0  0  0  0  0  0  0  0
   15.1832  -22.1228   -1.8136 C   0  0  0  0  0  0  0  0  0  0  0  0
   14.2071  -23.1741   -2.3701 C   0  0  2  0  0  0  0  0  0  0  0  0
   12.8247  -22.6643   -2.0232 C   0  0  0  0  0  0  0  0  0  0  0  0
   14.5399  -24.4476   -1.6661 C   0  0  0  0  0  0  0  0  0  0  0  0
   15.8320  -25.0863   -2.0834 C   0  0  2  0  0  0  0  0  0  0  0  0
   15.7309  -25.6685   -3.4163 N   0  0  0  0  0  0  0  0  0  0  0  0
   16.2929  -26.1639   -1.1861 C   0  0  0  0  0  0  0  0  0  0  0  0
   16.7538  -25.9457   -0.0255 O   0  0  0  0  0  0  0  0  0  0  0  0
   16.2330  -27.4725   -1.5955 O   0  0  0  0  0  0  0  0  0  0  0  0
  2  1  1  1
  2  3  1  0
  4  5  1  0
  4  2  1  0
  5  7  1  0
  5  6  1  6
  7  8  2  0
 10  9  1  6
 10 12  1  0
 11 10  1  0
 12 13  1  6
 13  7  1  0
 14 15  2  0
 14 12  1  0
 17 16  1  1
 17 19  1  0
 18 17  1  0
 20 19  1  1
 20 21  1  0
 20 22  1  0
 21 14  1  0
 22 24  1  0
 23 22  2  0
M  END
$$$$
