LTL.pdb
     RDKit          3D

 24 23  0  0  1  0  0  0  0  0999 V2000
   15.8439  -16.3442  -15.1481 C   0  0  0  0  0  0  0  0  0  0  0  0
   16.7520  -16.5040  -16.3285 C   0  0  2  0  0  0  0  0  0  0  0  0
   17.7183  -17.6280  -16.0428 C   0  0  0  0  0  0  0  0  0  0  0  0
   17.4334  -15.2330  -16.7292 C   0  0  0  0  0  0  0  0  0  0  0  0
   16.4536  -14.1210  -17.0314 C   0  0  2  0  0  0  0  0  0  0  0  0
   15.6832  -14.4809  -18.2071 N   0  0  0  0  0  0  0  0  0  0  0  0
   17.1305  -12.8473  -17.2939 C   0  0  0  0  0  0  0  0  0  0  0  0
   17.9093  -12.6958  -18.2965 O   0  0  0  0  0  0  0  0  0  0  0  0
   15.5748   -9.5878  -18.0217 C   0  0  0  0  0  0  0  0  0  0  0  0
   16.5110   -9.3560  -16.8812 C   0  0  1  0  0  0  0  0  0  0  0  0
   15.8321   -9.3099  -15.6641 O   0  0  0  0  0  0  0  0  0  0  0  0
   17.6056  -10.4110  -16.8013 C   0  0  2  0  0  0  0  0  0  0  0  0
   16.9846  -11.6889  -16.4732 N   0  0  0  0  0  0  0  0  0  0  0  0
   18.6625  -10.0510  -15.8380 C   0  0  0  0  0  0  0  0  0  0  0  0
   18.9417  -10.8601  -14.9172 O   0  0  0  0  0  0  0  0  0  0  0  0
   23.8584  -10.4812  -15.0093 C   0  0  0  0  0  0  0  0  0  0  0  0
   22.8643   -9.4357  -14.4742 C   0  0  2  0  0  0  0  0  0  0  0  0
   22.7018   -9.7501  -13.0025 C   0  0  0  0  0  0  0  0  0  0  0  0
   21.6037   -9.6444  -15.2458 C   0  0  0  0  0  0  0  0  0  0  0  0
   20.5517   -8.5941  -15.0419 C   0  0  2  0  0  0  0  0  0  0  0  0
   19.3897   -8.8342  -15.8894 N   0  0  0  0  0  0  0  0  0  0  0  0
   21.0050   -7.2186  -15.3272 C   0  0  0  0  0  0  0  0  0  0  0  0
   20.8909   -6.6772  -16.4678 O   0  0  0  0  0  0  0  0  0  0  0  0
   21.5797   -6.4641  -14.3353 O   0  0  0  0  0  0  0  0  0  0  0  0
  2  1  1  1
  2  3  1  0
  4  5  1  0
  4  2  1  0
  5  7  1  0
  5  6  1  6
  7  8  2  0
 10  9  1  6
 10 12  1  0
 11 10  1  0
 12 13  1  1
 13  7  1  0
 14 15  2  0
 14 12  1  0
 17 16  1  6
 17 19  1  0
 18 17  1  0
 20 19  1  6
 20 21  1  0
 20 22  1  0
 21 14  1  0
 22 24  1  0
 23 22  2  0
M  END
$$$$
