LTL.pdb
     RDKit          3D

 24 23  0  0  1  0  0  0  0  0999 V2000
   18.1993  -18.1803  -14.9777 C   0  0  0  0  0  0  0  0  0  0  0  0
   19.3454  -18.1259  -15.9405 C   0  0  2  0  0  0  0  0  0  0  0  0
   20.4888  -18.9317  -15.3727 C   0  0  0  0  0  0  0  0  0  0  0  0
   19.7403  -16.7315  -16.3148 C   0  0  0  0  0  0  0  0  0  0  0  0
   18.5960  -15.9480  -16.9186 C   0  0  2  0  0  0  0  0  0  0  0  0
   18.1824  -16.5949  -18.1498 N   0  0  0  0  0  0  0  0  0  0  0  0
   18.9773  -14.5665  -17.2273 C   0  0  0  0  0  0  0  0  0  0  0  0
   19.7106  -14.2824  -18.2354 O   0  0  0  0  0  0  0  0  0  0  0  0
   16.8057  -11.7635  -18.1206 C   0  0  0  0  0  0  0  0  0  0  0  0
   17.6318  -11.2797  -16.9741 C   0  0  1  0  0  0  0  0  0  0  0  0
   16.9172  -11.3180  -15.7773 O   0  0  0  0  0  0  0  0  0  0  0  0
   18.9217  -12.0712  -16.8095 C   0  0  2  0  0  0  0  0  0  0  0  0
   18.5739  -13.4405  -16.4486 N   0  0  0  0  0  0  0  0  0  0  0  0
   19.8339  -11.4592  -15.8256 C   0  0  0  0  0  0  0  0  0  0  0  0
   20.2322  -12.1545  -14.8568 O   0  0  0  0  0  0  0  0  0  0  0  0
   24.9506  -10.8583  -14.7901 C   0  0  0  0  0  0  0  0  0  0  0  0
   23.7690   -9.9610  -14.3822 C   0  0  2  0  0  0  0  0  0  0  0  0
   23.5934  -10.1773  -12.8943 C   0  0  0  0  0  0  0  0  0  0  0  0
   22.6000  -10.4478  -15.1723 C   0  0  0  0  0  0  0  0  0  0  0  0
   21.3579   -9.6150  -15.0497 C   0  0  2  0  0  0  0  0  0  0  0  0
   20.2929  -10.1195  -15.9083 N   0  0  0  0  0  0  0  0  0  0  0  0
   21.5443   -8.1933  -15.3999 C   0  0  0  0  0  0  0  0  0  0  0  0
   21.4014   -7.7484  -16.5784 O   0  0  0  0  0  0  0  0  0  0  0  0
   21.8875   -7.2852  -14.4297 O   0  0  0  0  0  0  0  0  0  0  0  0
  2  1  1  1
  2  3  1  0
  4  5  1  0
  4  2  1  0
  5  7  1  0
  5  6  1  6
  7  8  2  0
 10  9  1  6
 10 12  1  0
 11 10  1  0
 12 13  1  1
 13  7  1  0
 14 15  2  0
 14 12  1  0
 17 16  1  6
 17 19  1  0
 18 17  1  0
 20 19  1  6
 20 21  1  0
 20 22  1  0
 21 14  1  0
 22 24  1  0
 23 22  2  0
M  END
$$$$
