LTL.pdb
     RDKit          3D

 24 23  0  0  1  0  0  0  0  0999 V2000
   21.3724  -19.0132  -12.6134 C   0  0  0  0  0  0  0  0  0  0  0  0
   21.3005  -20.5092  -12.5979 C   0  0  2  0  0  0  0  0  0  0  0  0
   19.9310  -20.9196  -12.1130 C   0  0  0  0  0  0  0  0  0  0  0  0
   22.4116  -21.1487  -11.8253 C   0  0  0  0  0  0  0  0  0  0  0  0
   23.7749  -20.6536  -12.2543 C   0  0  2  0  0  0  0  0  0  0  0  0
   24.0545  -21.1470  -13.5899 N   0  0  0  0  0  0  0  0  0  0  0  0
   24.8369  -21.1192  -11.3573 C   0  0  0  0  0  0  0  0  0  0  0  0
   25.1403  -22.3577  -11.2633 O   0  0  0  0  0  0  0  0  0  0  0  0
   29.2040  -21.2234   -9.9905 C   0  0  0  0  0  0  0  0  0  0  0  0
   27.9671  -20.7537  -10.6837 C   0  0  1  0  0  0  0  0  0  0  0  0
   27.6710  -21.5454  -11.7927 O   0  0  0  0  0  0  0  0  0  0  0  0
   26.7580  -20.7189   -9.7594 C   0  0  2  0  0  0  0  0  0  0  0  0
   25.6097  -20.2525  -10.5276 N   0  0  0  0  0  0  0  0  0  0  0  0
   26.9906  -19.8899   -8.5621 C   0  0  0  0  0  0  0  0  0  0  0  0
   26.5000  -18.7330   -8.5237 O   0  0  0  0  0  0  0  0  0  0  0  0
   26.6771  -20.4250   -3.7756 C   0  0  0  0  0  0  0  0  0  0  0  0
   27.7519  -21.2201   -4.5375 C   0  0  2  0  0  0  0  0  0  0  0  0
   28.4699  -22.0379   -3.4854 C   0  0  0  0  0  0  0  0  0  0  0  0
   28.6377  -20.1987   -5.1702 C   0  0  0  0  0  0  0  0  0  0  0  0
   28.0239  -19.4445   -6.3129 C   0  0  2  0  0  0  0  0  0  0  0  0
   27.7423  -20.3249   -7.4406 N   0  0  0  0  0  0  0  0  0  0  0  0
   28.8616  -18.3464   -6.8339 C   0  0  0  0  0  0  0  0  0  0  0  0
   28.9915  -17.2351   -6.2379 O   0  0  0  0  0  0  0  0  0  0  0  0
   29.5445  -18.5027   -8.0141 O   0  0  0  0  0  0  0  0  0  0  0  0
  2  1  1  1
  2  3  1  0
  4  5  1  0
  4  2  1  0
  5  7  1  0
  5  6  1  6
  7  8  2  0
 10  9  1  1
 10 12  1  0
 11 10  1  0
 12 13  1  6
 13  7  1  0
 14 15  2  0
 14 12  1  0
 17 16  1  1
 17 19  1  0
 18 17  1  0
 20 19  1  1
 20 21  1  0
 20 22  1  0
 21 14  1  0
 22 24  1  0
 23 22  2  0
M  END
$$$$
