VLM.pdb
     RDKit          3D

 24 23  0  0  1  0  0  0  0  0999 V2000
   16.5269  -12.8899  -19.7168 C   0  0  0  0  0  0  0  0  0  0  0  0
   15.9697  -12.7780  -18.3408 C   0  0  2  0  0  0  0  0  0  0  0  0
   14.7895  -11.8228  -18.3906 C   0  0  0  0  0  0  0  0  0  0  0  0
   16.9440  -12.3552  -17.2786 C   0  0  2  0  0  0  0  0  0  0  0  0
   16.2849  -12.5148  -15.9469 N   0  0  0  0  0  0  0  0  0  0  0  0
   17.4345  -10.9795  -17.4087 C   0  0  0  0  0  0  0  0  0  0  0  0
   18.2110  -10.6654  -18.3553 O   0  0  0  0  0  0  0  0  0  0  0  0
   14.4716   -6.3590  -17.1496 C   0  0  0  0  0  0  0  0  0  0  0  0
   15.5631   -7.3349  -17.6505 C   0  0  1  0  0  0  0  0  0  0  0  0
   16.2575   -6.5708  -18.7650 C   0  0  0  0  0  0  0  0  0  0  0  0
   16.4498   -7.5623  -16.4721 C   0  0  0  0  0  0  0  0  0  0  0  0
   17.5011   -8.6018  -16.6044 C   0  0  2  0  0  0  0  0  0  0  0  0
   17.0602   -9.9677  -16.4980 N   0  0  0  0  0  0  0  0  0  0  0  0
   18.5468   -8.3353  -15.5987 C   0  0  0  0  0  0  0  0  0  0  0  0
   18.5610   -8.9911  -14.5330 O   0  0  0  0  0  0  0  0  0  0  0  0
   25.1675  -10.5445  -13.9376 C   0  0  0  0  0  0  0  0  0  0  0  0
   23.6460  -10.3690  -14.8883 S   0  0  0  0  0  0  0  0  0  0  0  0
   22.7551   -8.8689  -14.4590 C   0  0  0  0  0  0  0  0  0  0  0  0
   21.5013   -8.7784  -15.2919 C   0  0  0  0  0  0  0  0  0  0  0  0
   20.7970   -7.4522  -15.0066 C   0  0  2  0  0  0  0  0  0  0  0  0
   19.5648   -7.3565  -15.7672 N   0  0  0  0  0  0  0  0  0  0  0  0
   21.6752   -6.2940  -15.2612 C   0  0  0  0  0  0  0  0  0  0  0  0
   22.3868   -5.7390  -14.2304 O   0  0  0  0  0  0  0  0  0  0  0  0
   21.7514   -5.8369  -16.4337 O   0  0  0  0  0  0  0  0  0  0  0  0
  2  1  1  6
  2  3  1  0
  4  6  1  0
  4  2  1  0
  4  5  1  1
  6  7  2  0
  9 11  1  0
  9  8  1  1
 10  9  1  0
 12 11  1  1
 13 12  1  0
 13  6  1  0
 14 15  2  0
 14 12  1  0
 16 17  1  0
 17 18  1  0
 18 19  1  0
 20 19  1  6
 20 21  1  0
 20 22  1  0
 21 14  1  0
 22 24  2  0
 22 23  1  0
M  END
$$$$
