VLM.pdb
     RDKit          3D

 24 23  0  0  1  0  0  0  0  0999 V2000
   24.9978  -15.7580  -16.4350 C   0  0  0  0  0  0  0  0  0  0  0  0
   26.2803  -15.7453  -15.6792 C   0  0  2  0  0  0  0  0  0  0  0  0
   27.0781  -14.5346  -16.1325 C   0  0  0  0  0  0  0  0  0  0  0  0
   27.1101  -16.9927  -15.7879 C   0  0  2  0  0  0  0  0  0  0  0  0
   27.4812  -17.1860  -17.2224 N   0  0  0  0  0  0  0  0  0  0  0  0
   26.4567  -18.2090  -15.2939 C   0  0  0  0  0  0  0  0  0  0  0  0
   25.9389  -19.0295  -16.1039 O   0  0  0  0  0  0  0  0  0  0  0  0
   26.2748  -21.5951  -10.1367 C   0  0  0  0  0  0  0  0  0  0  0  0
   25.5271  -21.3290  -11.4652 C   0  0  1  0  0  0  0  0  0  0  0  0
   24.0856  -21.1087  -11.0392 C   0  0  0  0  0  0  0  0  0  0  0  0
   26.1553  -20.0957  -12.0229 C   0  0  0  0  0  0  0  0  0  0  0  0
   25.7498  -19.6868  -13.3910 C   0  0  2  0  0  0  0  0  0  0  0  0
   26.3862  -18.5073  -13.9158 N   0  0  0  0  0  0  0  0  0  0  0  0
   24.2851  -19.5133  -13.4088 C   0  0  0  0  0  0  0  0  0  0  0  0
   23.7653  -18.5789  -12.7587 O   0  0  0  0  0  0  0  0  0  0  0  0
   20.6421  -18.4416  -18.1909 C   0  0  0  0  0  0  0  0  0  0  0  0
   19.3999  -19.2694  -17.1803 S   0  0  0  0  0  0  0  0  0  0  0  0
   19.9883  -19.5764  -15.5106 C   0  0  0  0  0  0  0  0  0  0  0  0
   21.4810  -19.7880  -15.5393 C   0  0  0  0  0  0  0  0  0  0  0  0
   21.9764  -20.1024  -14.1280 C   0  0  2  0  0  0  0  0  0  0  0  0
   23.4043  -20.3611  -14.1357 N   0  0  0  0  0  0  0  0  0  0  0  0
   21.2324  -21.2210  -13.5173 C   0  0  0  0  0  0  0  0  0  0  0  0
   20.0674  -20.9749  -12.8398 O   0  0  0  0  0  0  0  0  0  0  0  0
   21.6908  -22.3896  -13.6343 O   0  0  0  0  0  0  0  0  0  0  0  0
  2  1  1  6
  2  3  1  0
  4  6  1  0
  4  2  1  0
  4  5  1  6
  6  7  2  0
  9 11  1  0
  9  8  1  1
 10  9  1  0
 12 11  1  1
 13 12  1  0
 13  6  1  0
 14 15  2  0
 14 12  1  0
 16 17  1  0
 17 18  1  0
 18 19  1  0
 20 19  1  6
 20 21  1  0
 20 22  1  0
 21 14  1  0
 22 24  2  0
 22 23  1  0
M  END
$$$$
