VLM.pdb
     RDKit          3D

 24 23  0  0  1  0  0  0  0  0999 V2000
   20.4053  -30.3172  -11.4097 C   0  0  0  0  0  0  0  0  0  0  0  0
   20.9846  -31.2809  -10.4340 C   0  0  2  0  0  0  0  0  0  0  0  0
   20.9900  -30.6167   -9.0678 C   0  0  0  0  0  0  0  0  0  0  0  0
   22.3526  -31.8020  -10.7707 C   0  0  2  0  0  0  0  0  0  0  0  0
   22.2564  -32.5888  -12.0376 N   0  0  0  0  0  0  0  0  0  0  0  0
   22.9631  -32.6384   -9.7324 C   0  0  0  0  0  0  0  0  0  0  0  0
   22.5042  -33.7907   -9.4892 O   0  0  0  0  0  0  0  0  0  0  0  0
   28.5111  -32.9149   -8.7074 C   0  0  0  0  0  0  0  0  0  0  0  0
   27.0536  -33.2644   -9.0922 C   0  0  1  0  0  0  0  0  0  0  0  0
   27.0693  -34.7739   -9.2629 C   0  0  0  0  0  0  0  0  0  0  0  0
   26.2300  -32.8274   -7.9271 C   0  0  0  0  0  0  0  0  0  0  0  0
   24.7616  -33.0224   -8.0229 C   0  0  2  0  0  0  0  0  0  0  0  0
   24.0726  -32.1967   -8.9794 N   0  0  0  0  0  0  0  0  0  0  0  0
   24.1786  -32.8255   -6.6822 C   0  0  0  0  0  0  0  0  0  0  0  0
   24.1164  -31.6731   -6.1984 O   0  0  0  0  0  0  0  0  0  0  0  0
   18.7596  -34.2883   -3.3632 C   0  0  0  0  0  0  0  0  0  0  0  0
   19.1359  -33.8634   -5.0741 S   0  0  0  0  0  0  0  0  0  0  0  0
   20.8269  -33.2878   -5.2669 C   0  0  0  0  0  0  0  0  0  0  0  0
   21.7379  -34.1179   -4.3981 C   0  0  0  0  0  0  0  0  0  0  0  0
   23.1750  -33.6194   -4.5476 C   0  0  2  0  0  0  0  0  0  0  0  0
   23.6702  -33.8879   -5.8850 N   0  0  0  0  0  0  0  0  0  0  0  0
   24.0679  -34.1905   -3.5208 C   0  0  0  0  0  0  0  0  0  0  0  0
   24.0535  -33.6843   -2.2478 O   0  0  0  0  0  0  0  0  0  0  0  0
   24.8315  -35.1408   -3.8420 O   0  0  0  0  0  0  0  0  0  0  0  0
  2  1  1  6
  2  3  1  0
  4  6  1  0
  4  2  1  0
  4  5  1  6
  6  7  2  0
  9 11  1  0
  9  8  1  1
 10  9  1  0
 12 11  1  1
 13 12  1  0
 13  6  1  0
 14 15  2  0
 14 12  1  0
 16 17  1  0
 17 18  1  0
 18 19  1  0
 20 19  1  6
 20 21  1  0
 20 22  1  0
 21 14  1  0
 22 24  2  0
 22 23  1  0
M  END
$$$$
