VLM.pdb
     RDKit          3D

 24 23  0  0  1  0  0  0  0  0999 V2000
   22.7302  -19.6781  -14.0464 C   0  0  0  0  0  0  0  0  0  0  0  0
   23.7359  -18.6760  -14.4946 C   0  0  2  0  0  0  0  0  0  0  0  0
   22.9994  -17.5746  -15.2375 C   0  0  0  0  0  0  0  0  0  0  0  0
   24.8600  -19.2150  -15.3327 C   0  0  2  0  0  0  0  0  0  0  0  0
   24.2773  -19.8066  -16.5750 N   0  0  0  0  0  0  0  0  0  0  0  0
   25.6929  -20.2220  -14.6674 C   0  0  0  0  0  0  0  0  0  0  0  0
   25.4518  -21.4531  -14.8218 O   0  0  0  0  0  0  0  0  0  0  0  0
   30.3189  -22.3389  -13.0837 C   0  0  0  0  0  0  0  0  0  0  0  0
   29.8303  -21.3157  -12.0306 C   0  0  1  0  0  0  0  0  0  0  0  0
   31.1088  -20.6736  -11.5197 C   0  0  0  0  0  0  0  0  0  0  0  0
   28.9715  -20.3596  -12.7889 C   0  0  0  0  0  0  0  0  0  0  0  0
   27.6078  -20.8165  -13.1561 C   0  0  2  0  0  0  0  0  0  0  0  0
   26.7819  -19.8602  -13.8451 N   0  0  0  0  0  0  0  0  0  0  0  0
   26.9256  -21.2736  -11.9307 C   0  0  0  0  0  0  0  0  0  0  0  0
   27.5480  -21.9741  -11.1013 O   0  0  0  0  0  0  0  0  0  0  0  0
   27.7656  -19.6205   -6.3778 C   0  0  0  0  0  0  0  0  0  0  0  0
   26.1634  -18.9866   -6.9076 S   0  0  0  0  0  0  0  0  0  0  0  0
   25.2923  -20.1558   -7.9575 C   0  0  0  0  0  0  0  0  0  0  0  0
   25.8602  -20.0917   -9.3529 C   0  0  0  0  0  0  0  0  0  0  0  0
   25.0963  -21.0590  -10.2568 C   0  0  2  0  0  0  0  0  0  0  0  0
   25.5723  -20.9611  -11.6242 N   0  0  0  0  0  0  0  0  0  0  0  0
   23.6373  -20.8511  -10.1811 C   0  0  0  0  0  0  0  0  0  0  0  0
   22.9641  -21.1602   -9.0287 O   0  0  0  0  0  0  0  0  0  0  0  0
   23.0376  -20.3889  -11.1892 O   0  0  0  0  0  0  0  0  0  0  0  0
  2  1  1  6
  2  3  1  0
  4  6  1  0
  4  2  1  0
  4  5  1  6
  6  7  2  0
  9 11  1  0
  9  8  1  6
 10  9  1  0
 12 11  1  1
 13 12  1  0
 13  6  1  0
 14 15  2  0
 14 12  1  0
 16 17  1  0
 17 18  1  0
 18 19  1  0
 20 19  1  1
 20 21  1  0
 20 22  1  0
 21 14  1  0
 22 24  2  0
 22 23  1  0
M  END
$$$$
