VLM.pdb
     RDKit          3D

 24 23  0  0  1  0  0  0  0  0999 V2000
   28.1516  -18.4418  -18.0465 C   0  0  0  0  0  0  0  0  0  0  0  0
   27.2273  -19.1122  -17.0911 C   0  0  2  0  0  0  0  0  0  0  0  0
   26.3875  -18.0380  -16.4213 C   0  0  0  0  0  0  0  0  0  0  0  0
   27.8820  -19.9869  -16.0602 C   0  0  2  0  0  0  0  0  0  0  0  0
   28.6072  -21.0848  -16.7685 N   0  0  0  0  0  0  0  0  0  0  0  0
   26.9622  -20.5741  -15.0807 C   0  0  0  0  0  0  0  0  0  0  0  0
   26.2631  -21.5820  -15.3857 O   0  0  0  0  0  0  0  0  0  0  0  0
   25.4539  -22.0940  -10.1240 C   0  0  0  0  0  0  0  0  0  0  0  0
   25.1597  -20.5951  -10.3716 C   0  0  1  0  0  0  0  0  0  0  0  0
   25.3887  -19.9458   -9.0174 C   0  0  0  0  0  0  0  0  0  0  0  0
   26.1627  -20.1666  -11.3901 C   0  0  0  0  0  0  0  0  0  0  0  0
   25.9230  -20.5815  -12.7950 C   0  0  2  0  0  0  0  0  0  0  0  0
   26.8281  -20.0468  -13.7780 N   0  0  0  0  0  0  0  0  0  0  0  0
   24.5351  -20.2319  -13.1521 C   0  0  0  0  0  0  0  0  0  0  0  0
   24.2115  -19.0288  -13.2700 O   0  0  0  0  0  0  0  0  0  0  0  0
   20.8217  -23.0088  -17.3471 C   0  0  0  0  0  0  0  0  0  0  0  0
   19.6720  -21.7524  -16.7563 S   0  0  0  0  0  0  0  0  0  0  0  0
   20.2844  -20.9192  -15.2870 C   0  0  0  0  0  0  0  0  0  0  0  0
   21.6653  -21.4312  -14.9629 C   0  0  0  0  0  0  0  0  0  0  0  0
   22.1628  -20.7707  -13.6775 C   0  0  2  0  0  0  0  0  0  0  0  0
   23.5164  -21.1987  -13.3764 N   0  0  0  0  0  0  0  0  0  0  0  0
   21.2562  -21.0213  -12.5404 C   0  0  0  0  0  0  0  0  0  0  0  0
   21.4030  -22.1579  -11.7898 O   0  0  0  0  0  0  0  0  0  0  0  0
   20.3580  -20.1748  -12.2832 O   0  0  0  0  0  0  0  0  0  0  0  0
  2  1  1  1
  2  3  1  0
  4  6  1  0
  4  2  1  0
  4  5  1  6
  6  7  2  0
  9 11  1  0
  9  8  1  1
 10  9  1  0
 12 11  1  1
 13 12  1  0
 13  6  1  0
 14 15  2  0
 14 12  1  0
 16 17  1  0
 17 18  1  0
 18 19  1  0
 20 19  1  6
 20 21  1  0
 20 22  1  0
 21 14  1  0
 22 24  2  0
 22 23  1  0
M  END
$$$$
