VLM.pdb
     RDKit          3D

 24 23  0  0  1  0  0  0  0  0999 V2000
   20.6185  -14.5154  -19.1293 C   0  0  0  0  0  0  0  0  0  0  0  0
   20.8942  -13.4945  -18.0814 C   0  0  2  0  0  0  0  0  0  0  0  0
   19.6282  -13.3119  -17.2619 C   0  0  0  0  0  0  0  0  0  0  0  0
   21.3925  -12.1688  -18.5820 C   0  0  2  0  0  0  0  0  0  0  0  0
   22.4823  -12.4208  -19.5729 N   0  0  0  0  0  0  0  0  0  0  0  0
   21.8923  -11.2677  -17.5387 C   0  0  0  0  0  0  0  0  0  0  0  0
   21.1728  -10.9887  -16.5377 O   0  0  0  0  0  0  0  0  0  0  0  0
   27.3122  -10.4864  -16.0747 C   0  0  0  0  0  0  0  0  0  0  0  0
   25.8015  -10.8086  -15.9819 C   0  0  1  0  0  0  0  0  0  0  0  0
   25.5603  -11.0200  -14.4969 C   0  0  0  0  0  0  0  0  0  0  0  0
   25.1132   -9.5935  -16.5076 C   0  0  0  0  0  0  0  0  0  0  0  0
   23.6437   -9.6759  -16.7001 C   0  0  2  0  0  0  0  0  0  0  0  0
   23.1784  -10.6898  -17.6094 N   0  0  0  0  0  0  0  0  0  0  0  0
   23.1577   -8.3533  -17.1364 C   0  0  0  0  0  0  0  0  0  0  0  0
   23.2668   -8.0200  -18.3376 O   0  0  0  0  0  0  0  0  0  0  0  0
   17.9213   -4.3129  -19.9694 C   0  0  0  0  0  0  0  0  0  0  0  0
   18.8505   -5.7585  -19.4251 S   0  0  0  0  0  0  0  0  0  0  0  0
   20.1483   -5.3235  -18.2612 C   0  0  0  0  0  0  0  0  0  0  0  0
   20.8183   -6.5816  -17.7689 C   0  0  0  0  0  0  0  0  0  0  0  0
   21.9347   -6.2132  -16.7920 C   0  0  2  0  0  0  0  0  0  0  0  0
   22.5581   -7.4096  -16.2572 N   0  0  0  0  0  0  0  0  0  0  0  0
   21.4546   -5.3304  -15.7114 C   0  0  0  0  0  0  0  0  0  0  0  0
   21.0991   -4.0380  -15.9950 O   0  0  0  0  0  0  0  0  0  0  0  0
   21.3820   -5.7903  -14.5398 O   0  0  0  0  0  0  0  0  0  0  0  0
  2  1  1  6
  2  3  1  0
  4  6  1  0
  4  2  1  0
  4  5  1  6
  6  7  2  0
  9 11  1  0
  9  8  1  1
 10  9  1  0
 12 11  1  6
 13 12  1  0
 13  6  1  0
 14 15  2  0
 14 12  1  0
 16 17  1  0
 17 18  1  0
 18 19  1  0
 20 19  1  6
 20 21  1  0
 20 22  1  0
 21 14  1  0
 22 24  2  0
 22 23  1  0
M  END
$$$$
