FSL.pdb
     RDKit          3D

 26 26  0  0  1  0  0  0  0  0999 V2000
   11.9240  -19.5260   26.3884 N   0  0  0  0  0  0  0  0  0  0  0  0
   11.1919  -18.2794   26.4834 C   0  0  1  0  0  0  0  0  0  0  0  0
   12.2186  -17.2106   26.7700 C   0  0  0  0  0  0  0  0  0  0  0  0
   11.5039  -16.1565   27.5487 C   0  0  0  0  0  0  0  0  0  0  0  0
   10.9079  -15.0530   26.9756 C   0  0  0  0  0  0  0  0  0  0  0  0
   10.2484  -14.0911   27.7205 C   0  0  0  0  0  0  0  0  0  0  0  0
   10.1675  -14.2132   29.0930 C   0  0  0  0  0  0  0  0  0  0  0  0
   10.7531  -15.3032   29.6883 C   0  0  0  0  0  0  0  0  0  0  0  0
   11.3969  -16.2383   28.9396 C   0  0  0  0  0  0  0  0  0  0  0  0
   10.3623  -18.0176   25.3134 C   0  0  0  0  0  0  0  0  0  0  0  0
   10.9062  -17.8536   24.1680 O   0  0  0  0  0  0  0  0  0  0  0  0
    6.0303  -17.9066   25.1913 O   0  0  0  0  0  0  0  0  0  0  0  0
    6.7963  -17.9196   24.0802 C   0  0  0  0  0  0  0  0  0  0  0  0
    8.1891  -17.3552   24.2142 C   0  0  2  0  0  0  0  0  0  0  0  0
    8.9337  -17.9183   25.3032 N   0  0  0  0  0  0  0  0  0  0  0  0
    8.2009  -15.8775   24.1975 C   0  0  0  0  0  0  0  0  0  0  0  0
    8.5011  -15.2546   25.2714 O   0  0  0  0  0  0  0  0  0  0  0  0
    7.8997  -12.2155   19.7136 C   0  0  0  0  0  0  0  0  0  0  0  0
    8.3865  -12.9566   20.9412 C   0  0  2  0  0  0  0  0  0  0  0  0
    8.8932  -14.3082   20.5169 C   0  0  0  0  0  0  0  0  0  0  0  0
    7.2389  -13.0179   21.9065 C   0  0  0  0  0  0  0  0  0  0  0  0
    7.5890  -13.6285   23.2431 C   0  0  2  0  0  0  0  0  0  0  0  0
    7.9055  -15.0589   23.0809 N   0  0  0  0  0  0  0  0  0  0  0  0
    6.5611  -13.4363   24.2833 C   0  0  0  0  0  0  0  0  0  0  0  0
    6.4646  -12.2415   24.9796 O   0  0  0  0  0  0  0  0  0  0  0  0
    5.7529  -14.3464   24.5614 O   0  0  0  0  0  0  0  0  0  0  0  0
  2  1  1  6
  2 10  1  0
  3  2  1  0
  3  4  1  0
  4  9  2  0
  5  4  1  0
  5  6  2  0
  6  7  1  0
  7  8  2  0
  9  8  1  0
 10 11  2  0
 12 13  1  0
 14 13  1  1
 14 16  1  0
 15 14  1  0
 15 10  1  0
 16 23  1  0
 16 17  2  0
 19 18  1  6
 19 20  1  0
 21 19  1  0
 22 21  1  6
 22 24  1  0
 23 22  1  0
 24 26  2  0
 24 25  1  0
M  END
$$$$
