FSL.pdb
     RDKit          3D

 26 26  0  0  1  0  0  0  0  0999 V2000
    5.4979  -17.1570   24.3793 N   0  0  0  0  0  0  0  0  0  0  0  0
    6.6399  -16.2793   24.5347 C   0  0  1  0  0  0  0  0  0  0  0  0
    6.4757  -15.6108   25.8782 C   0  0  0  0  0  0  0  0  0  0  0  0
    6.4464  -14.1440   25.6034 C   0  0  0  0  0  0  0  0  0  0  0  0
    7.4218  -13.4789   24.8908 C   0  0  0  0  0  0  0  0  0  0  0  0
    7.3693  -12.1176   24.6472 C   0  0  0  0  0  0  0  0  0  0  0  0
    6.3118  -11.3692   25.1236 C   0  0  0  0  0  0  0  0  0  0  0  0
    5.3273  -12.0079   25.8365 C   0  0  0  0  0  0  0  0  0  0  0  0
    5.3961  -13.3465   26.0657 C   0  0  0  0  0  0  0  0  0  0  0  0
    7.9130  -16.9672   24.3573 C   0  0  0  0  0  0  0  0  0  0  0  0
    8.1698  -18.0211   25.0340 O   0  0  0  0  0  0  0  0  0  0  0  0
   11.3097  -15.4078   22.0900 O   0  0  0  0  0  0  0  0  0  0  0  0
   11.1608  -16.7205   22.3661 C   0  0  0  0  0  0  0  0  0  0  0  0
   10.3057  -17.0661   23.5602 C   0  0  2  0  0  0  0  0  0  0  0  0
    8.9616  -16.5744   23.4645 N   0  0  0  0  0  0  0  0  0  0  0  0
   10.9640  -16.7290   24.8396 C   0  0  0  0  0  0  0  0  0  0  0  0
   11.6212  -15.6369   24.9218 O   0  0  0  0  0  0  0  0  0  0  0  0
   11.8185  -14.1873   27.5562 C   0  0  0  0  0  0  0  0  0  0  0  0
   10.4984  -14.9234   27.6496 C   0  0  2  0  0  0  0  0  0  0  0  0
    9.5780  -14.1466   28.5513 C   0  0  0  0  0  0  0  0  0  0  0  0
   10.7972  -16.3095   28.1416 C   0  0  0  0  0  0  0  0  0  0  0  0
   11.6866  -17.1123   27.2216 C   0  0  2  0  0  0  0  0  0  0  0  0
   10.9393  -17.5151   26.0167 N   0  0  0  0  0  0  0  0  0  0  0  0
   12.3171  -18.2828   27.8602 C   0  0  0  0  0  0  0  0  0  0  0  0
   12.0611  -19.5676   27.4070 O   0  0  0  0  0  0  0  0  0  0  0  0
   13.0971  -18.1437   28.8251 O   0  0  0  0  0  0  0  0  0  0  0  0
  2  1  1  1
  2 10  1  0
  3  2  1  0
  3  4  1  0
  4  9  2  0
  5  4  1  0
  5  6  2  0
  6  7  1  0
  7  8  2  0
  9  8  1  0
 10 11  2  0
 12 13  1  0
 14 13  1  6
 14 16  1  0
 15 14  1  0
 15 10  1  0
 16 23  1  0
 16 17  2  0
 19 18  1  1
 19 20  1  0
 21 19  1  0
 22 21  1  1
 22 24  1  0
 23 22  1  0
 24 26  2  0
 24 25  1  0
M  END
$$$$
