FSL.pdb
     RDKit          3D

 26 26  0  0  1  0  0  0  0  0999 V2000
    5.5346  -17.5384   24.4170 N   0  0  0  0  0  0  0  0  0  0  0  0
    6.5389  -16.4976   24.5006 C   0  0  1  0  0  0  0  0  0  0  0  0
    6.4275  -15.9177   25.8899 C   0  0  0  0  0  0  0  0  0  0  0  0
    6.3741  -14.4367   25.7108 C   0  0  0  0  0  0  0  0  0  0  0  0
    5.3089  -13.6556   26.1067 C   0  0  0  0  0  0  0  0  0  0  0  0
    5.2857  -12.2830   25.9316 C   0  0  0  0  0  0  0  0  0  0  0  0
    6.3557  -11.6421   25.3403 C   0  0  0  0  0  0  0  0  0  0  0  0
    7.4290  -12.3976   24.9369 C   0  0  0  0  0  0  0  0  0  0  0  0
    7.4337  -13.7454   25.1174 C   0  0  0  0  0  0  0  0  0  0  0  0
    7.8739  -16.9674   24.1507 C   0  0  0  0  0  0  0  0  0  0  0  0
    8.4241  -17.8970   24.8347 O   0  0  0  0  0  0  0  0  0  0  0  0
   10.3477  -15.1645   21.1444 O   0  0  0  0  0  0  0  0  0  0  0  0
   10.6172  -16.4221   21.5536 C   0  0  0  0  0  0  0  0  0  0  0  0
   10.0587  -16.8296   22.8946 C   0  0  2  0  0  0  0  0  0  0  0  0
    8.6792  -16.4790   23.0718 N   0  0  0  0  0  0  0  0  0  0  0  0
   10.9212  -16.4024   24.0161 C   0  0  0  0  0  0  0  0  0  0  0  0
   11.5280  -15.2818   23.9305 O   0  0  0  0  0  0  0  0  0  0  0  0
   10.8305  -15.3991   29.1703 C   0  0  0  0  0  0  0  0  0  0  0  0
   11.0712  -14.5069   27.9706 C   0  0  2  0  0  0  0  0  0  0  0  0
   10.2889  -13.2348   28.1534 C   0  0  0  0  0  0  0  0  0  0  0  0
   10.6772  -15.2878   26.7509 C   0  0  0  0  0  0  0  0  0  0  0  0
   11.5872  -16.4540   26.4444 C   0  0  2  0  0  0  0  0  0  0  0  0
   11.1494  -17.1290   25.2095 N   0  0  0  0  0  0  0  0  0  0  0  0
   11.7217  -17.4223   27.5488 C   0  0  0  0  0  0  0  0  0  0  0  0
   10.7361  -18.3653   27.7955 O   0  0  0  0  0  0  0  0  0  0  0  0
   12.7276  -17.4152   28.2884 O   0  0  0  0  0  0  0  0  0  0  0  0
  2  1  1  1
  2 10  1  0
  3  2  1  0
  3  4  1  0
  4  9  2  0
  5  4  1  0
  5  6  2  0
  6  7  1  0
  7  8  2  0
  9  8  1  0
 10 11  2  0
 12 13  1  0
 14 13  1  6
 14 16  1  0
 15 14  1  0
 15 10  1  0
 16 23  1  0
 16 17  2  0
 19 18  1  1
 19 20  1  0
 21 19  1  0
 22 21  1  1
 22 24  1  0
 23 22  1  0
 24 26  2  0
 24 25  1  0
M  END
$$$$
