FSL.pdb
     RDKit          3D

 26 26  0  0  1  0  0  0  0  0999 V2000
    6.9891  -17.4030   20.0728 N   0  0  0  0  0  0  0  0  0  0  0  0
    7.5157  -16.3642   20.9344 C   0  0  1  0  0  0  0  0  0  0  0  0
    6.3176  -15.6410   21.5004 C   0  0  0  0  0  0  0  0  0  0  0  0
    6.8660  -14.5958   22.4141 C   0  0  0  0  0  0  0  0  0  0  0  0
    6.7269  -14.6284   23.7857 C   0  0  0  0  0  0  0  0  0  0  0  0
    7.2480  -13.6474   24.6111 C   0  0  0  0  0  0  0  0  0  0  0  0
    7.9387  -12.5819   24.0699 C   0  0  0  0  0  0  0  0  0  0  0  0
    8.0909  -12.5260   22.7064 C   0  0  0  0  0  0  0  0  0  0  0  0
    7.5719  -13.4995   21.9113 C   0  0  0  0  0  0  0  0  0  0  0  0
    8.4397  -16.8749   21.9400 C   0  0  0  0  0  0  0  0  0  0  0  0
    7.9997  -17.5734   22.9162 O   0  0  0  0  0  0  0  0  0  0  0  0
   12.8634  -16.7086   21.8921 O   0  0  0  0  0  0  0  0  0  0  0  0
   12.0620  -17.7017   22.3315 C   0  0  0  0  0  0  0  0  0  0  0  0
   10.7319  -17.2888   22.9117 C   0  0  2  0  0  0  0  0  0  0  0  0
    9.8571  -16.6710   21.9575 N   0  0  0  0  0  0  0  0  0  0  0  0
   10.8800  -16.5124   24.1605 C   0  0  0  0  0  0  0  0  0  0  0  0
   11.1329  -15.2631   24.0794 O   0  0  0  0  0  0  0  0  0  0  0  0
    9.5854  -14.6308   29.1624 C   0  0  0  0  0  0  0  0  0  0  0  0
   10.4257  -14.1831   27.9848 C   0  0  2  0  0  0  0  0  0  0  0  0
   10.1194  -12.7383   27.6979 C   0  0  0  0  0  0  0  0  0  0  0  0
   10.1144  -15.1047   26.8418 C   0  0  0  0  0  0  0  0  0  0  0  0
   11.1243  -16.2114   26.6490 C   0  0  2  0  0  0  0  0  0  0  0  0
   10.7663  -17.0268   25.4745 N   0  0  0  0  0  0  0  0  0  0  0  0
   11.3204  -17.0644   27.8362 C   0  0  0  0  0  0  0  0  0  0  0  0
   10.5809  -18.2236   28.0126 O   0  0  0  0  0  0  0  0  0  0  0  0
   12.1580  -16.7618   28.7113 O   0  0  0  0  0  0  0  0  0  0  0  0
  2  1  1  1
  2 10  1  0
  3  2  1  0
  3  4  1  0
  4  9  2  0
  5  4  1  0
  5  6  2  0
  6  7  1  0
  7  8  2  0
  9  8  1  0
 10 11  2  0
 12 13  1  0
 14 13  1  6
 14 16  1  0
 15 14  1  0
 15 10  1  0
 16 23  1  0
 16 17  2  0
 19 18  1  1
 19 20  1  0
 21 19  1  0
 22 21  1  1
 22 24  1  0
 23 22  1  0
 24 26  2  0
 24 25  1  0
M  END
$$$$
