FSL.pdb
     RDKit          3D

 26 26  0  0  1  0  0  0  0  0999 V2000
    6.6843  -17.8722   19.6544 N   0  0  0  0  0  0  0  0  0  0  0  0
    7.2789  -16.6981   20.2599 C   0  0  1  0  0  0  0  0  0  0  0  0
    6.2811  -15.5803   20.0763 C   0  0  0  0  0  0  0  0  0  0  0  0
    6.9573  -14.3445   20.5701 C   0  0  0  0  0  0  0  0  0  0  0  0
    7.7192  -13.5176   19.7718 C   0  0  0  0  0  0  0  0  0  0  0  0
    8.3335  -12.3752   20.2543 C   0  0  0  0  0  0  0  0  0  0  0  0
    8.1969  -12.0236   21.5820 C   0  0  0  0  0  0  0  0  0  0  0  0
    7.4432  -12.8307   22.3982 C   0  0  0  0  0  0  0  0  0  0  0  0
    6.8470  -13.9494   21.9059 C   0  0  0  0  0  0  0  0  0  0  0  0
    7.6880  -16.9175   21.6420 C   0  0  0  0  0  0  0  0  0  0  0  0
    6.8282  -17.2906   22.5115 O   0  0  0  0  0  0  0  0  0  0  0  0
   11.7064  -17.6657   22.9412 O   0  0  0  0  0  0  0  0  0  0  0  0
   10.5663  -18.0907   23.5253 C   0  0  0  0  0  0  0  0  0  0  0  0
    9.3944  -17.1410   23.4881 C   0  0  2  0  0  0  0  0  0  0  0  0
    9.0126  -16.7532   22.1610 N   0  0  0  0  0  0  0  0  0  0  0  0
    9.5691  -15.9963   24.4064 C   0  0  0  0  0  0  0  0  0  0  0  0
   10.4778  -15.1367   24.1488 O   0  0  0  0  0  0  0  0  0  0  0  0
    8.3038  -12.0305   25.5125 C   0  0  0  0  0  0  0  0  0  0  0  0
    7.3907  -13.1716   25.9092 C   0  0  2  0  0  0  0  0  0  0  0  0
    6.0508  -12.6039   26.2917 C   0  0  0  0  0  0  0  0  0  0  0  0
    8.0698  -13.9173   27.0206 C   0  0  0  0  0  0  0  0  0  0  0  0
    9.2447  -14.7550   26.5737 C   0  0  2  0  0  0  0  0  0  0  0  0
    8.8099  -15.7483   25.5753 N   0  0  0  0  0  0  0  0  0  0  0  0
    9.9752  -15.4085   27.6759 C   0  0  0  0  0  0  0  0  0  0  0  0
   10.7462  -14.6687   28.5589 O   0  0  0  0  0  0  0  0  0  0  0  0
    9.9163  -16.6449   27.8394 O   0  0  0  0  0  0  0  0  0  0  0  0
  2  1  1  1
  2 10  1  0
  3  2  1  0
  3  4  1  0
  4  9  2  0
  5  4  1  0
  5  6  2  0
  6  7  1  0
  7  8  2  0
  9  8  1  0
 10 11  2  0
 12 13  1  0
 14 13  1  6
 14 16  1  0
 15 14  1  0
 15 10  1  0
 16 23  1  0
 16 17  2  0
 19 18  1  1
 19 20  1  0
 21 19  1  0
 22 21  1  1
 22 24  1  0
 23 22  1  0
 24 26  2  0
 24 25  1  0
M  END
$$$$
