FSL.pdb
     RDKit          3D

 26 26  0  0  1  0  0  0  0  0999 V2000
    6.0482  -18.0706   21.1543 N   0  0  0  0  0  0  0  0  0  0  0  0
    6.9418  -16.9368   21.2761 C   0  0  1  0  0  0  0  0  0  0  0  0
    6.0745  -15.7563   21.6407 C   0  0  0  0  0  0  0  0  0  0  0  0
    6.9368  -14.5494   21.4738 C   0  0  0  0  0  0  0  0  0  0  0  0
    7.4087  -13.7940   22.5266 C   0  0  0  0  0  0  0  0  0  0  0  0
    8.2097  -12.6803   22.3445 C   0  0  0  0  0  0  0  0  0  0  0  0
    8.5671  -12.2850   21.0712 C   0  0  0  0  0  0  0  0  0  0  0  0
    8.1099  -13.0204   20.0056 C   0  0  0  0  0  0  0  0  0  0  0  0
    7.3237  -14.1120   20.2042 C   0  0  0  0  0  0  0  0  0  0  0  0
    8.0449  -17.1797   22.1978 C   0  0  0  0  0  0  0  0  0  0  0  0
    7.8058  -17.5635   23.3937 O   0  0  0  0  0  0  0  0  0  0  0  0
   12.8856  -17.4978   23.1071 O   0  0  0  0  0  0  0  0  0  0  0  0
   11.8603  -17.2828   22.2562 C   0  0  0  0  0  0  0  0  0  0  0  0
   10.4791  -17.2369   22.8619 C   0  0  2  0  0  0  0  0  0  0  0  0
    9.4371  -17.0285   21.8984 N   0  0  0  0  0  0  0  0  0  0  0  0
   10.4022  -16.3185   24.0172 C   0  0  0  0  0  0  0  0  0  0  0  0
   10.3641  -15.0607   23.7990 O   0  0  0  0  0  0  0  0  0  0  0  0
    7.6553  -13.0182   27.0441 C   0  0  0  0  0  0  0  0  0  0  0  0
    8.9590  -13.7388   27.3164 C   0  0  2  0  0  0  0  0  0  0  0  0
   10.0716  -12.7263   27.3407 C   0  0  0  0  0  0  0  0  0  0  0  0
    9.1182  -14.7851   26.2522 C   0  0  0  0  0  0  0  0  0  0  0  0
   10.3056  -15.6965   26.4558 C   0  0  2  0  0  0  0  0  0  0  0  0
   10.3646  -16.7018   25.3795 N   0  0  0  0  0  0  0  0  0  0  0  0
   10.3491  -16.3460   27.7793 C   0  0  0  0  0  0  0  0  0  0  0  0
   11.0491  -15.7764   28.8315 O   0  0  0  0  0  0  0  0  0  0  0  0
    9.7557  -17.4255   27.9832 O   0  0  0  0  0  0  0  0  0  0  0  0
  2  1  1  1
  2 10  1  0
  3  2  1  0
  3  4  1  0
  4  9  2  0
  5  4  1  0
  5  6  2  0
  6  7  1  0
  7  8  2  0
  9  8  1  0
 10 11  2  0
 12 13  1  0
 14 13  1  6
 14 16  1  0
 15 14  1  0
 15 10  1  0
 16 23  1  0
 16 17  2  0
 19 18  1  6
 19 20  1  0
 21 19  1  0
 22 21  1  1
 22 24  1  0
 23 22  1  0
 24 26  2  0
 24 25  1  0
M  END
$$$$
