FSL.pdb
     RDKit          3D

 26 26  0  0  1  0  0  0  0  0999 V2000
    7.2589  -17.5746   20.8323 N   0  0  0  0  0  0  0  0  0  0  0  0
    7.6164  -16.4804   21.7119 C   0  0  1  0  0  0  0  0  0  0  0  0
    6.3213  -15.9741   22.2995 C   0  0  0  0  0  0  0  0  0  0  0  0
    6.6676  -14.7193   23.0300 C   0  0  0  0  0  0  0  0  0  0  0  0
    6.5117  -14.5575   24.3905 C   0  0  0  0  0  0  0  0  0  0  0  0
    6.8435  -13.3837   25.0443 C   0  0  0  0  0  0  0  0  0  0  0  0
    7.3524  -12.3154   24.3337 C   0  0  0  0  0  0  0  0  0  0  0  0
    7.5173  -12.4510   22.9773 C   0  0  0  0  0  0  0  0  0  0  0  0
    7.1856  -13.6123   22.3524 C   0  0  0  0  0  0  0  0  0  0  0  0
    8.6206  -16.8520   22.7013 C   0  0  0  0  0  0  0  0  0  0  0  0
    8.2821  -17.5269   23.7331 O   0  0  0  0  0  0  0  0  0  0  0  0
   12.9015  -15.9852   22.5078 O   0  0  0  0  0  0  0  0  0  0  0  0
   12.3779  -17.1413   22.9671 C   0  0  0  0  0  0  0  0  0  0  0  0
   10.9879  -17.0682   23.5492 C   0  0  2  0  0  0  0  0  0  0  0  0
   10.0147  -16.5292   22.6439 N   0  0  0  0  0  0  0  0  0  0  0  0
   10.9690  -16.4272   24.8807 C   0  0  0  0  0  0  0  0  0  0  0  0
   11.6689  -15.3748   25.0644 O   0  0  0  0  0  0  0  0  0  0  0  0
   10.9001  -13.5358   28.2342 C   0  0  0  0  0  0  0  0  0  0  0  0
    9.6864  -14.0020   27.4578 C   0  0  2  0  0  0  0  0  0  0  0  0
    8.5307  -13.0953   27.7831 C   0  0  0  0  0  0  0  0  0  0  0  0
    9.4492  -15.4377   27.8253 C   0  0  0  0  0  0  0  0  0  0  0  0
   10.5341  -16.3807   27.3610 C   0  0  2  0  0  0  0  0  0  0  0  0
   10.2329  -16.8730   26.0048 N   0  0  0  0  0  0  0  0  0  0  0  0
   10.7909  -17.5058   28.2795 C   0  0  0  0  0  0  0  0  0  0  0  0
   10.6014  -18.8173   27.8725 O   0  0  0  0  0  0  0  0  0  0  0  0
   11.1855  -17.3030   29.4465 O   0  0  0  0  0  0  0  0  0  0  0  0
  2  1  1  1
  2 10  1  0
  3  2  1  0
  3  4  1  0
  4  9  2  0
  5  4  1  0
  5  6  2  0
  6  7  1  0
  7  8  2  0
  9  8  1  0
 10 11  2  0
 12 13  1  0
 14 13  1  6
 14 16  1  0
 15 14  1  0
 15 10  1  0
 16 23  1  0
 16 17  2  0
 19 18  1  1
 19 20  1  0
 21 19  1  0
 22 21  1  1
 22 24  1  0
 23 22  1  0
 24 26  2  0
 24 25  1  0
M  END
$$$$
