SCS.pdb
     RDKit          3D

 19 18  0  0  1  0  0  0  0  0999 V2000
    7.4985  -18.8875   19.7540 O   0  0  0  0  0  0  0  0  0  0  0  0
    6.5529  -17.8916   19.4994 C   0  0  0  0  0  0  0  0  0  0  0  0
    7.3020  -16.6887   18.9831 C   0  0  2  0  0  0  0  0  0  0  0  0
    7.9345  -16.9893   17.7369 N   0  0  0  0  0  0  0  0  0  0  0  0
    8.2771  -16.1563   19.9335 C   0  0  0  0  0  0  0  0  0  0  0  0
    9.5356  -16.1497   19.7034 O   0  0  0  0  0  0  0  0  0  0  0  0
    7.8174  -15.6209   21.1688 N   0  0  0  0  0  0  0  0  0  0  0  0
    8.7411  -15.0371   22.1260 C   0  0  1  0  0  0  0  0  0  0  0  0
    8.0247  -14.2017   23.1571 C   0  0  0  0  0  0  0  0  0  0  0  0
    6.8859  -15.3041   24.0510 S   0  0  0  0  0  0  0  0  0  0  0  0
    9.6037  -16.0785   22.7482 C   0  0  0  0  0  0  0  0  0  0  0  0
    9.1631  -17.2488   22.8766 O   0  0  0  0  0  0  0  0  0  0  0  0
   13.9078  -17.6641   24.0357 O   0  0  0  0  0  0  0  0  0  0  0  0
   13.1833  -16.5729   23.5597 C   0  0  0  0  0  0  0  0  0  0  0  0
   11.7288  -16.8704   23.7560 C   0  0  2  0  0  0  0  0  0  0  0  0
   10.9181  -15.8076   23.2094 N   0  0  0  0  0  0  0  0  0  0  0  0
   11.4462  -17.0599   25.2151 C   0  0  0  0  0  0  0  0  0  0  0  0
   11.8642  -18.1900   25.9003 O   0  0  0  0  0  0  0  0  0  0  0  0
   10.8150  -16.1887   25.8641 O   0  0  0  0  0  0  0  0  0  0  0  0
  2  1  1  0
  3  2  1  0
  3  4  1  6
  5  6  2  0
  5  3  1  0
  7  5  1  0
  8  7  1  0
  8  9  1  1
 10  9  1  0
 11  8  1  0
 11 12  2  0
 13 14  1  0
 15 16  1  0
 15 14  1  1
 16 11  1  0
 17 15  1  0
 18 17  1  0
 19 17  2  0
M  END
$$$$
