SCS.pdb
     RDKit          3D

 19 18  0  0  1  0  0  0  0  0999 V2000
    7.3812  -15.8293   20.4046 O   0  0  0  0  0  0  0  0  0  0  0  0
    6.3721  -14.8749   20.5516 C   0  0  0  0  0  0  0  0  0  0  0  0
    7.0459  -13.5544   20.8291 C   0  0  2  0  0  0  0  0  0  0  0  0
    7.8808  -13.1777   19.7316 N   0  0  0  0  0  0  0  0  0  0  0  0
    7.8075  -13.5387   22.0770 C   0  0  0  0  0  0  0  0  0  0  0  0
    9.0840  -13.6175   22.1098 O   0  0  0  0  0  0  0  0  0  0  0  0
    7.1092  -13.4315   23.3118 N   0  0  0  0  0  0  0  0  0  0  0  0
    7.8056  -13.5412   24.5820 C   0  0  1  0  0  0  0  0  0  0  0  0
    7.0145  -12.9261   25.7089 C   0  0  0  0  0  0  0  0  0  0  0  0
    8.0629  -12.9738   27.1955 S   0  0  0  0  0  0  0  0  0  0  0  0
    8.1874  -14.9511   24.8685 C   0  0  0  0  0  0  0  0  0  0  0  0
    7.3125  -15.8517   24.8087 O   0  0  0  0  0  0  0  0  0  0  0  0
   11.4024  -18.4109   25.1171 O   0  0  0  0  0  0  0  0  0  0  0  0
   11.1383  -17.0747   24.8223 C   0  0  0  0  0  0  0  0  0  0  0  0
    9.8283  -16.7183   25.4544 C   0  0  2  0  0  0  0  0  0  0  0  0
    9.5113  -15.3307   25.2105 N   0  0  0  0  0  0  0  0  0  0  0  0
    9.8851  -17.0018   26.9245 C   0  0  0  0  0  0  0  0  0  0  0  0
    9.9830  -18.2937   27.4169 O   0  0  0  0  0  0  0  0  0  0  0  0
    9.8449  -16.0643   27.7600 O   0  0  0  0  0  0  0  0  0  0  0  0
  2  1  1  0
  3  2  1  0
  3  4  1  6
  5  6  2  0
  5  3  1  0
  7  5  1  0
  8  7  1  0
  8  9  1  1
 10  9  1  0
 11  8  1  0
 11 12  2  0
 13 14  1  0
 15 16  1  0
 15 14  1  1
 16 11  1  0
 17 15  1  0
 18 17  1  0
 19 17  2  0
M  END
$$$$
