SCS.pdb
     RDKit          3D

 19 18  0  0  1  0  0  0  0  0999 V2000
   -5.8934  -26.8798   22.9140 O   0  0  0  0  0  0  0  0  0  0  0  0
   -5.7779  -26.4904   24.2504 C   0  0  0  0  0  0  0  0  0  0  0  0
   -4.7034  -25.4339   24.3143 C   0  0  2  0  0  0  0  0  0  0  0  0
   -3.4073  -26.0326   24.2417 N   0  0  0  0  0  0  0  0  0  0  0  0
   -4.8010  -24.5727   25.4918 C   0  0  0  0  0  0  0  0  0  0  0  0
   -4.5472  -24.9870   26.6753 O   0  0  0  0  0  0  0  0  0  0  0  0
   -5.1940  -23.2156   25.3252 N   0  0  0  0  0  0  0  0  0  0  0  0
   -5.3563  -22.3336   26.4679 C   0  0  1  0  0  0  0  0  0  0  0  0
   -5.0450  -20.9002   26.1172 C   0  0  0  0  0  0  0  0  0  0  0  0
   -3.2452  -20.7802   25.8770 S   0  0  0  0  0  0  0  0  0  0  0  0
   -6.7064  -22.4818   27.0770 C   0  0  0  0  0  0  0  0  0  0  0  0
   -7.7271  -22.3426   26.3565 O   0  0  0  0  0  0  0  0  0  0  0  0
   -9.6913  -24.5314   29.9294 O   0  0  0  0  0  0  0  0  0  0  0  0
   -8.3729  -24.3738   29.5061 C   0  0  0  0  0  0  0  0  0  0  0  0
   -8.2285  -22.9822   28.9721 C   0  0  2  0  0  0  0  0  0  0  0  0
   -6.8971  -22.7770   28.4519 N   0  0  0  0  0  0  0  0  0  0  0  0
   -8.5360  -21.9931   30.0548 C   0  0  0  0  0  0  0  0  0  0  0  0
   -7.5613  -21.1626   30.5851 O   0  0  0  0  0  0  0  0  0  0  0  0
   -9.7000  -21.8893   30.5162 O   0  0  0  0  0  0  0  0  0  0  0  0
  2  1  1  0
  3  2  1  0
  3  4  1  1
  5  6  2  0
  5  3  1  0
  7  5  1  0
  8  7  1  0
  8  9  1  6
 10  9  1  0
 11  8  1  0
 11 12  2  0
 13 14  1  0
 15 16  1  0
 15 14  1  1
 16 11  1  0
 17 15  1  0
 18 17  1  0
 19 17  2  0
M  END
$$$$
