SCS.pdb
     RDKit          3D

 19 18  0  0  1  0  0  0  0  0999 V2000
    7.7451  -15.5278   17.8008 O   0  0  0  0  0  0  0  0  0  0  0  0
    6.7807  -14.5987   18.1976 C   0  0  0  0  0  0  0  0  0  0  0  0
    7.5118  -13.4423   18.8323 C   0  0  2  0  0  0  0  0  0  0  0  0
    8.3303  -12.7770   17.8674 N   0  0  0  0  0  0  0  0  0  0  0  0
    8.3072  -13.8239   19.9981 C   0  0  0  0  0  0  0  0  0  0  0  0
    9.5832  -13.9122   19.9667 O   0  0  0  0  0  0  0  0  0  0  0  0
    7.6442  -14.1111   21.2236 N   0  0  0  0  0  0  0  0  0  0  0  0
    8.3913  -14.4595   22.4197 C   0  0  1  0  0  0  0  0  0  0  0  0
    7.5413  -14.3543   23.6609 C   0  0  0  0  0  0  0  0  0  0  0  0
    7.2912  -12.5836   23.9975 S   0  0  0  0  0  0  0  0  0  0  0  0
    9.0284  -15.7982   22.2875 C   0  0  0  0  0  0  0  0  0  0  0  0
    8.3508  -16.7640   21.8535 O   0  0  0  0  0  0  0  0  0  0  0  0
   11.9630  -16.8034   20.4775 O   0  0  0  0  0  0  0  0  0  0  0  0
   12.2336  -17.3141   21.7457 C   0  0  0  0  0  0  0  0  0  0  0  0
   10.9425  -17.3631   22.5028 C   0  0  2  0  0  0  0  0  0  0  0  0
   10.3836  -16.0379   22.6335 N   0  0  0  0  0  0  0  0  0  0  0  0
   11.1713  -17.9803   23.8487 C   0  0  0  0  0  0  0  0  0  0  0  0
   10.8562  -17.3134   25.0223 O   0  0  0  0  0  0  0  0  0  0  0  0
   11.6610  -19.1329   23.9504 O   0  0  0  0  0  0  0  0  0  0  0  0
  2  1  1  0
  3  2  1  0
  3  4  1  6
  5  6  2  0
  5  3  1  0
  7  5  1  0
  8  7  1  0
  8  9  1  1
 10  9  1  0
 11  8  1  0
 11 12  2  0
 13 14  1  0
 15 16  1  0
 15 14  1  1
 16 11  1  0
 17 15  1  0
 18 17  1  0
 19 17  2  0
M  END
$$$$
