SCS.pdb
     RDKit          3D

 19 18  0  0  1  0  0  0  0  0999 V2000
    8.2292  -15.7185   18.0426 O   0  0  0  0  0  0  0  0  0  0  0  0
    7.0657  -14.9729   18.2455 C   0  0  0  0  0  0  0  0  0  0  0  0
    7.4813  -13.6563   18.8525 C   0  0  2  0  0  0  0  0  0  0  0  0
    8.3013  -12.9212   17.9411 N   0  0  0  0  0  0  0  0  0  0  0  0
    8.1531  -13.7951   20.1436 C   0  0  0  0  0  0  0  0  0  0  0  0
    9.4256  -13.7535   20.2697 O   0  0  0  0  0  0  0  0  0  0  0  0
    7.3681  -13.9848   21.3147 N   0  0  0  0  0  0  0  0  0  0  0  0
    7.9891  -14.1968   22.6107 C   0  0  1  0  0  0  0  0  0  0  0  0
    6.9911  -14.0807   23.7353 C   0  0  0  0  0  0  0  0  0  0  0  0
    7.9132  -14.2392   25.2960 S   0  0  0  0  0  0  0  0  0  0  0  0
    8.7308  -15.4868   22.6494 C   0  0  0  0  0  0  0  0  0  0  0  0
    8.2299  -16.5033   22.1051 O   0  0  0  0  0  0  0  0  0  0  0  0
   12.4763  -18.0570   22.3090 O   0  0  0  0  0  0  0  0  0  0  0  0
   11.9671  -16.7721   22.4879 C   0  0  0  0  0  0  0  0  0  0  0  0
   10.6854  -16.8918   23.2530 C   0  0  2  0  0  0  0  0  0  0  0  0
    9.9942  -15.6242   23.2809 N   0  0  0  0  0  0  0  0  0  0  0  0
   10.9717  -17.3736   24.6425 C   0  0  0  0  0  0  0  0  0  0  0  0
   10.5703  -16.6603   25.7611 O   0  0  0  0  0  0  0  0  0  0  0  0
   11.5909  -18.4502   24.8327 O   0  0  0  0  0  0  0  0  0  0  0  0
  2  1  1  0
  3  2  1  0
  3  4  1  6
  5  6  2  0
  5  3  1  0
  7  5  1  0
  8  7  1  0
  8  9  1  1
 10  9  1  0
 11  8  1  0
 11 12  2  0
 13 14  1  0
 15 16  1  0
 15 14  1  6
 16 11  1  0
 17 15  1  0
 18 17  1  0
 19 17  2  0
M  END
$$$$
