SCS.pdb
     RDKit          3D

 19 18  0  0  1  0  0  0  0  0999 V2000
   -4.1000  -27.8437   24.5640 O   0  0  0  0  0  0  0  0  0  0  0  0
   -4.4803  -27.1897   25.7381 C   0  0  0  0  0  0  0  0  0  0  0  0
   -3.3709  -26.2313   26.0925 C   0  0  2  0  0  0  0  0  0  0  0  0
   -2.1749  -26.9459   26.4124 N   0  0  0  0  0  0  0  0  0  0  0  0
   -3.7185  -25.3105   27.1737 C   0  0  0  0  0  0  0  0  0  0  0  0
   -3.4935  -25.5729   28.4055 O   0  0  0  0  0  0  0  0  0  0  0  0
   -4.3330  -24.0682   26.8530 N   0  0  0  0  0  0  0  0  0  0  0  0
   -4.7391  -23.1390   27.8932 C   0  0  1  0  0  0  0  0  0  0  0  0
   -4.4679  -21.7079   27.5022 C   0  0  0  0  0  0  0  0  0  0  0  0
   -4.9328  -20.6627   28.9174 S   0  0  0  0  0  0  0  0  0  0  0  0
   -6.1588  -23.3543   28.2852 C   0  0  0  0  0  0  0  0  0  0  0  0
   -7.0293  -23.5084   27.3914 O   0  0  0  0  0  0  0  0  0  0  0  0
   -7.4025  -25.7534   30.8839 O   0  0  0  0  0  0  0  0  0  0  0  0
   -8.0420  -24.5506   31.1780 C   0  0  0  0  0  0  0  0  0  0  0  0
   -7.9590  -23.6805   29.9620 C   0  0  2  0  0  0  0  0  0  0  0  0
   -6.5808  -23.3942   29.6395 N   0  0  0  0  0  0  0  0  0  0  0  0
   -8.7259  -22.4147   30.1954 C   0  0  0  0  0  0  0  0  0  0  0  0
  -10.1084  -22.3701   30.1059 O   0  0  0  0  0  0  0  0  0  0  0  0
   -8.1287  -21.3471   30.4820 O   0  0  0  0  0  0  0  0  0  0  0  0
  2  1  1  0
  3  2  1  0
  3  4  1  1
  5  6  2  0
  5  3  1  0
  7  5  1  0
  8  7  1  0
  8  9  1  6
 10  9  1  0
 11  8  1  0
 11 12  2  0
 13 14  1  0
 15 16  1  0
 15 14  1  1
 16 11  1  0
 17 15  1  0
 18 17  1  0
 19 17  2  0
M  END
$$$$
