SCS.pdb
     RDKit          3D

 19 18  0  0  1  0  0  0  0  0999 V2000
    7.0948  -16.8407   21.3551 O   0  0  0  0  0  0  0  0  0  0  0  0
    6.2826  -15.7203   21.1653 C   0  0  0  0  0  0  0  0  0  0  0  0
    7.1782  -14.5078   21.2176 C   0  0  2  0  0  0  0  0  0  0  0  0
    8.0823  -14.5049   20.1103 N   0  0  0  0  0  0  0  0  0  0  0  0
    7.9128  -14.3787   22.4750 C   0  0  0  0  0  0  0  0  0  0  0  0
    9.1578  -14.6537   22.5807 O   0  0  0  0  0  0  0  0  0  0  0  0
    7.2235  -13.9291   23.6354 N   0  0  0  0  0  0  0  0  0  0  0  0
    7.8923  -13.8439   24.9222 C   0  0  1  0  0  0  0  0  0  0  0  0
    7.1190  -12.9951   25.8998 C   0  0  0  0  0  0  0  0  0  0  0  0
    8.1207  -12.8638   27.4133 S   0  0  0  0  0  0  0  0  0  0  0  0
    8.1900  -15.1969   25.4666 C   0  0  0  0  0  0  0  0  0  0  0  0
    7.2776  -16.0608   25.5060 O   0  0  0  0  0  0  0  0  0  0  0  0
   10.6681  -17.2360   24.3881 O   0  0  0  0  0  0  0  0  0  0  0  0
   10.7984  -17.5711   25.7346 C   0  0  0  0  0  0  0  0  0  0  0  0
    9.6988  -16.8843   26.4841 C   0  0  2  0  0  0  0  0  0  0  0  0
    9.4735  -15.5617   25.9497 N   0  0  0  0  0  0  0  0  0  0  0  0
   10.0464  -16.8189   27.9400 C   0  0  0  0  0  0  0  0  0  0  0  0
   10.3694  -17.9543   28.6665 O   0  0  0  0  0  0  0  0  0  0  0  0
   10.0545  -15.7196   28.5482 O   0  0  0  0  0  0  0  0  0  0  0  0
  2  1  1  0
  3  2  1  0
  3  4  1  6
  5  6  2  0
  5  3  1  0
  7  5  1  0
  8  7  1  0
  8  9  1  1
 10  9  1  0
 11  8  1  0
 11 12  2  0
 13 14  1  0
 15 16  1  0
 15 14  1  6
 16 11  1  0
 17 15  1  0
 18 17  1  0
 19 17  2  0
M  END
$$$$
