VAN.pdb
     RDKit          3D

 21 20  0  0  1  0  0  0  0  0999 V2000
   16.8831  -10.4726  -18.1116 C   0  0  0  0  0  0  0  0  0  0  0  0
   16.6327  -11.6431  -17.2195 C   0  0  2  0  0  0  0  0  0  0  0  0
   16.3159  -11.1755  -15.8372 C   0  0  0  0  0  0  0  0  0  0  0  0
   17.8192  -12.6132  -17.1922 C   0  0  2  0  0  0  0  0  0  0  0  0
   17.4712  -13.7699  -16.3879 N   0  0  0  0  0  0  0  0  0  0  0  0
   19.0128  -11.9190  -16.6870 C   0  0  0  0  0  0  0  0  0  0  0  0
   19.0777  -11.6491  -15.4601 O   0  0  0  0  0  0  0  0  0  0  0  0
   22.4473  -10.8465  -17.8685 C   0  0  0  0  0  0  0  0  0  0  0  0
   21.2570  -10.8061  -16.9431 C   0  0  2  0  0  0  0  0  0  0  0  0
   20.1212  -11.5186  -17.4792 N   0  0  0  0  0  0  0  0  0  0  0  0
   20.9372   -9.4014  -16.6015 C   0  0  0  0  0  0  0  0  0  0  0  0
   20.0523   -8.7239  -17.2176 O   0  0  0  0  0  0  0  0  0  0  0  0
   21.3682   -4.7099  -14.3606 N   0  0  0  0  0  0  0  0  0  0  0  0
   22.0767   -5.6485  -13.5062 C   0  0  0  0  0  0  0  0  0  0  0  0
   22.5479   -5.1219  -12.4723 O   0  0  0  0  0  0  0  0  0  0  0  0
   22.1854   -7.0682  -13.8915 C   0  0  0  0  0  0  0  0  0  0  0  0
   21.5272   -7.3871  -15.1816 C   0  0  2  0  0  0  0  0  0  0  0  0
   21.6383   -8.7819  -15.5509 N   0  0  0  0  0  0  0  0  0  0  0  0
   22.0932   -6.5686  -16.2672 C   0  0  0  0  0  0  0  0  0  0  0  0
   23.1654   -6.7569  -16.8737 O   0  0  0  0  0  0  0  0  0  0  0  0
   21.3402   -5.4381  -16.6736 O   0  0  0  0  0  0  0  0  0  0  0  0
  2  4  1  0
  2  1  1  6
  3  2  1  0
  4  6  1  0
  4  5  1  1
  6  7  2  0
  9  8  1  6
  9 11  1  0
 10  9  1  0
 10  6  1  0
 11 12  2  0
 11 18  1  0
 13 14  1  0
 14 16  1  0
 14 15  2  0
 17 16  1  1
 17 19  1  0
 18 17  1  0
 19 20  2  0
 19 21  1  0
M  END
$$$$
