VAN.pdb
     RDKit          3D

 21 20  0  0  1  0  0  0  0  0999 V2000
   17.3802  -13.8988  -18.0797 C   0  0  0  0  0  0  0  0  0  0  0  0
   17.9198  -13.2781  -16.8339 C   0  0  2  0  0  0  0  0  0  0  0  0
   17.6031  -14.1372  -15.6544 C   0  0  0  0  0  0  0  0  0  0  0  0
   17.3826  -11.8591  -16.6159 C   0  0  2  0  0  0  0  0  0  0  0  0
   16.5187  -11.5003  -17.7253 N   0  0  0  0  0  0  0  0  0  0  0  0
   18.5067  -10.9247  -16.4572 C   0  0  0  0  0  0  0  0  0  0  0  0
   19.3014  -11.0970  -15.4974 O   0  0  0  0  0  0  0  0  0  0  0  0
   20.1519   -8.0473  -18.2991 C   0  0  0  0  0  0  0  0  0  0  0  0
   19.8770   -8.9101  -17.0930 C   0  0  2  0  0  0  0  0  0  0  0  0
   18.7792   -9.8227  -17.3103 N   0  0  0  0  0  0  0  0  0  0  0  0
   19.6771   -8.0541  -15.9014 C   0  0  0  0  0  0  0  0  0  0  0  0
   18.5489   -7.5510  -15.5925 O   0  0  0  0  0  0  0  0  0  0  0  0
   20.9012   -5.2850  -11.6328 N   0  0  0  0  0  0  0  0  0  0  0  0
   20.9869   -6.7258  -11.4610 C   0  0  0  0  0  0  0  0  0  0  0  0
   21.1352   -7.0765  -10.2680 O   0  0  0  0  0  0  0  0  0  0  0  0
   20.8989   -7.6203  -12.6306 C   0  0  0  0  0  0  0  0  0  0  0  0
   20.7583   -6.9018  -13.9204 C   0  0  2  0  0  0  0  0  0  0  0  0
   20.7783   -7.7808  -15.0697 N   0  0  0  0  0  0  0  0  0  0  0  0
   21.8295   -5.9033  -14.0756 C   0  0  0  0  0  0  0  0  0  0  0  0
   21.9604   -4.8336  -13.4499 O   0  0  0  0  0  0  0  0  0  0  0  0
   22.8275   -6.1828  -15.0430 O   0  0  0  0  0  0  0  0  0  0  0  0
  2  4  1  0
  2  1  1  6
  3  2  1  0
  4  6  1  0
  4  5  1  6
  6  7  2  0
  9  8  1  6
  9 11  1  0
 10  9  1  0
 10  6  1  0
 11 12  2  0
 11 18  1  0
 13 14  1  0
 14 16  1  0
 14 15  2  0
 17 16  1  1
 17 19  1  0
 18 17  1  0
 19 20  2  0
 19 21  1  0
M  END
$$$$
