VAN.pdb
     RDKit          3D

 21 20  0  0  1  0  0  0  0  0999 V2000
   19.2298  -15.8727  -16.7058 C   0  0  0  0  0  0  0  0  0  0  0  0
   20.6605  -16.2933  -16.6371 C   0  0  2  0  0  0  0  0  0  0  0  0
   21.0461  -16.5697  -15.2213 C   0  0  0  0  0  0  0  0  0  0  0  0
   21.6001  -15.2477  -17.2483 C   0  0  2  0  0  0  0  0  0  0  0  0
   22.8653  -15.8777  -17.5773 N   0  0  0  0  0  0  0  0  0  0  0  0
   21.7611  -14.1232  -16.3148 C   0  0  0  0  0  0  0  0  0  0  0  0
   20.7320  -13.6240  -15.7910 O   0  0  0  0  0  0  0  0  0  0  0  0
   24.5297  -12.0228  -14.7711 C   0  0  0  0  0  0  0  0  0  0  0  0
   23.1028  -12.3487  -15.1350 C   0  0  2  0  0  0  0  0  0  0  0  0
   23.0018  -13.5398  -15.9453 N   0  0  0  0  0  0  0  0  0  0  0  0
   22.4685  -11.1724  -15.7723 C   0  0  0  0  0  0  0  0  0  0  0  0
   22.6047  -10.8977  -17.0081 O   0  0  0  0  0  0  0  0  0  0  0  0
   19.4650   -6.9446  -16.3272 N   0  0  0  0  0  0  0  0  0  0  0  0
   18.8373   -7.8810  -15.4095 C   0  0  0  0  0  0  0  0  0  0  0  0
   17.6759   -7.5498  -15.0782 O   0  0  0  0  0  0  0  0  0  0  0  0
   19.5658   -9.0820  -14.9595 C   0  0  0  0  0  0  0  0  0  0  0  0
   20.9556   -9.1619  -15.4710 C   0  0  2  0  0  0  0  0  0  0  0  0
   21.6791  -10.3162  -14.9829 N   0  0  0  0  0  0  0  0  0  0  0  0
   21.7099   -7.9495  -15.1103 C   0  0  0  0  0  0  0  0  0  0  0  0
   22.6435   -7.8578  -14.2901 O   0  0  0  0  0  0  0  0  0  0  0  0
   21.3383   -6.7482  -15.7651 O   0  0  0  0  0  0  0  0  0  0  0  0
  2  4  1  0
  2  1  1  1
  3  2  1  0
  4  6  1  0
  4  5  1  1
  6  7  2  0
  9  8  1  6
  9 11  1  0
 10  9  1  0
 10  6  1  0
 11 12  2  0
 11 18  1  0
 13 14  1  0
 14 16  1  0
 14 15  2  0
 17 16  1  1
 17 19  1  0
 18 17  1  0
 19 20  2  0
 19 21  1  0
M  END
$$$$
