VAN.pdb
     RDKit          3D

 21 20  0  0  1  0  0  0  0  0999 V2000
   21.9363  -17.0278  -18.5266 C   0  0  0  0  0  0  0  0  0  0  0  0
   21.5868  -15.8095  -17.7379 C   0  0  2  0  0  0  0  0  0  0  0  0
   20.1269  -15.5207  -17.8605 C   0  0  0  0  0  0  0  0  0  0  0  0
   22.4069  -14.5879  -18.1678 C   0  0  2  0  0  0  0  0  0  0  0  0
   23.7207  -15.0244  -18.6030 N   0  0  0  0  0  0  0  0  0  0  0  0
   22.4762  -13.6248  -17.0589 C   0  0  0  0  0  0  0  0  0  0  0  0
   21.4021  -13.2313  -16.5357 O   0  0  0  0  0  0  0  0  0  0  0  0
   25.0757  -11.7285  -15.0336 C   0  0  0  0  0  0  0  0  0  0  0  0
   23.6924  -11.9978  -15.5709 C   0  0  2  0  0  0  0  0  0  0  0  0
   23.6742  -13.0895  -16.5159 N   0  0  0  0  0  0  0  0  0  0  0  0
   23.1227  -10.7514  -16.1313 C   0  0  0  0  0  0  0  0  0  0  0  0
   23.1225  -10.4900  -17.3776 O   0  0  0  0  0  0  0  0  0  0  0  0
   20.0754   -6.5416  -16.3694 N   0  0  0  0  0  0  0  0  0  0  0  0
   19.6444   -7.8945  -16.6805 C   0  0  0  0  0  0  0  0  0  0  0  0
   18.5102   -7.9460  -17.2088 O   0  0  0  0  0  0  0  0  0  0  0  0
   20.5180   -9.0423  -16.3718 C   0  0  0  0  0  0  0  0  0  0  0  0
   21.7606   -8.6686  -15.6537 C   0  0  2  0  0  0  0  0  0  0  0  0
   22.5551   -9.8100  -15.2535 N   0  0  0  0  0  0  0  0  0  0  0  0
   21.4458   -7.8734  -14.4547 C   0  0  0  0  0  0  0  0  0  0  0  0
   21.1532   -8.3008  -13.3214 O   0  0  0  0  0  0  0  0  0  0  0  0
   21.4771   -6.4632  -14.5976 O   0  0  0  0  0  0  0  0  0  0  0  0
  2  4  1  0
  2  1  1  6
  3  2  1  0
  4  6  1  0
  4  5  1  1
  6  7  2  0
  9  8  1  6
  9 11  1  0
 10  9  1  0
 10  6  1  0
 11 12  2  0
 11 18  1  0
 13 14  1  0
 14 16  1  0
 14 15  2  0
 17 16  1  1
 17 19  1  0
 18 17  1  0
 19 20  2  0
 19 21  1  0
M  END
$$$$
