VAN.pdb
     RDKit          3D

 21 20  0  0  1  0  0  0  0  0999 V2000
   18.7226  -14.5937  -17.6908 C   0  0  0  0  0  0  0  0  0  0  0  0
   18.6162  -14.6215  -16.2020 C   0  0  2  0  0  0  0  0  0  0  0  0
   17.8038  -15.7968  -15.7681 C   0  0  0  0  0  0  0  0  0  0  0  0
   18.0172  -13.3268  -15.6412 C   0  0  2  0  0  0  0  0  0  0  0  0
   16.6196  -13.2433  -16.0227 N   0  0  0  0  0  0  0  0  0  0  0  0
   18.7971  -12.1751  -16.1180 C   0  0  0  0  0  0  0  0  0  0  0  0
   20.0234  -12.1233  -15.8425 O   0  0  0  0  0  0  0  0  0  0  0  0
   18.5068   -9.2045  -18.4235 C   0  0  0  0  0  0  0  0  0  0  0  0
   19.0491   -9.9214  -17.2124 C   0  0  2  0  0  0  0  0  0  0  0  0
   18.2763  -11.0945  -16.8779 N   0  0  0  0  0  0  0  0  0  0  0  0
   19.1629   -8.9739  -16.0803 C   0  0  0  0  0  0  0  0  0  0  0  0
   18.2964   -8.9003  -15.1501 O   0  0  0  0  0  0  0  0  0  0  0  0
   21.0656   -5.1625  -13.0686 N   0  0  0  0  0  0  0  0  0  0  0  0
   22.1636   -5.6565  -13.8830 C   0  0  0  0  0  0  0  0  0  0  0  0
   23.2623   -5.1185  -13.6157 O   0  0  0  0  0  0  0  0  0  0  0  0
   21.9234   -6.6930  -14.9047 C   0  0  0  0  0  0  0  0  0  0  0  0
   20.5042   -7.1117  -15.0059 C   0  0  2  0  0  0  0  0  0  0  0  0
   20.2750   -8.1142  -16.0240 N   0  0  0  0  0  0  0  0  0  0  0  0
   19.6417   -5.9518  -15.2881 C   0  0  0  0  0  0  0  0  0  0  0  0
   19.4504   -5.4044  -16.3910 O   0  0  0  0  0  0  0  0  0  0  0  0
   18.9480   -5.3892  -14.1870 O   0  0  0  0  0  0  0  0  0  0  0  0
  2  4  1  0
  2  1  1  6
  3  2  1  0
  4  6  1  0
  4  5  1  6
  6  7  2  0
  9  8  1  6
  9 11  1  0
 10  9  1  0
 10  6  1  0
 11 12  2  0
 11 18  1  0
 13 14  1  0
 14 16  1  0
 14 15  2  0
 17 16  1  6
 17 19  1  0
 18 17  1  0
 19 20  2  0
 19 21  1  0
M  END
$$$$
