VAN.pdb
     RDKit          3D

 21 20  0  0  1  0  0  0  0  0999 V2000
   19.7444  -13.7079  -16.3997 C   0  0  0  0  0  0  0  0  0  0  0  0
   19.4349  -12.9366  -17.6397 C   0  0  2  0  0  0  0  0  0  0  0  0
   19.2184  -13.8711  -18.7841 C   0  0  0  0  0  0  0  0  0  0  0  0
   20.5355  -11.9258  -17.9814 C   0  0  2  0  0  0  0  0  0  0  0  0
   21.6656  -12.6286  -18.5601 N   0  0  0  0  0  0  0  0  0  0  0  0
   20.9043  -11.1710  -16.7747 C   0  0  0  0  0  0  0  0  0  0  0  0
   20.0015  -10.5578  -16.1493 O   0  0  0  0  0  0  0  0  0  0  0  0
   23.9724  -10.3803  -14.6761 C   0  0  0  0  0  0  0  0  0  0  0  0
   22.5751  -10.1469  -15.1934 C   0  0  2  0  0  0  0  0  0  0  0  0
   22.2173  -11.0720  -16.2430 N   0  0  0  0  0  0  0  0  0  0  0  0
   22.4249   -8.7330  -15.6065 C   0  0  0  0  0  0  0  0  0  0  0  0
   22.6876   -8.3246  -16.7836 O   0  0  0  0  0  0  0  0  0  0  0  0
   20.9820   -3.7186  -15.3449 N   0  0  0  0  0  0  0  0  0  0  0  0
   19.9319   -4.7210  -15.4196 C   0  0  0  0  0  0  0  0  0  0  0  0
   18.8010   -4.2395  -15.6589 O   0  0  0  0  0  0  0  0  0  0  0  0
   20.2506   -6.1474  -15.2207 C   0  0  0  0  0  0  0  0  0  0  0  0
   21.6838   -6.4036  -14.9385 C   0  0  2  0  0  0  0  0  0  0  0  0
   21.9724   -7.7943  -14.6614 N   0  0  0  0  0  0  0  0  0  0  0  0
   22.1386   -5.5941  -13.7954 C   0  0  0  0  0  0  0  0  0  0  0  0
   22.2957   -4.3584  -13.7610 O   0  0  0  0  0  0  0  0  0  0  0  0
   22.4326   -6.2911  -12.5963 O   0  0  0  0  0  0  0  0  0  0  0  0
  2  4  1  0
  2  1  1  1
  3  2  1  0
  4  6  1  0
  4  5  1  1
  6  7  2  0
  9  8  1  6
  9 11  1  0
 10  9  1  0
 10  6  1  0
 11 12  2  0
 11 18  1  0
 13 14  1  0
 14 16  1  0
 14 15  2  0
 17 16  1  1
 17 19  1  0
 18 17  1  0
 19 20  2  0
 19 21  1  0
M  END
$$$$
