VAN.pdb
     RDKit          3D

 21 20  0  0  1  0  0  0  0  0999 V2000
   19.2164  -12.6637  -18.7546 C   0  0  0  0  0  0  0  0  0  0  0  0
   20.3037  -12.8698  -17.7526 C   0  0  2  0  0  0  0  0  0  0  0  0
   20.5580  -14.3293  -17.5651 C   0  0  0  0  0  0  0  0  0  0  0  0
   19.9819  -12.2104  -16.4067 C   0  0  2  0  0  0  0  0  0  0  0  0
   18.8908  -12.9272  -15.7731 N   0  0  0  0  0  0  0  0  0  0  0  0
   19.6707  -10.7886  -16.6156 C   0  0  0  0  0  0  0  0  0  0  0  0
   20.5750  -10.0333  -17.0562 O   0  0  0  0  0  0  0  0  0  0  0  0
   16.7372   -8.3930  -16.4392 C   0  0  0  0  0  0  0  0  0  0  0  0
   18.2012   -8.7541  -16.4105 C   0  0  2  0  0  0  0  0  0  0  0  0
   18.4131  -10.1816  -16.3583 N   0  0  0  0  0  0  0  0  0  0  0  0
   18.8704   -8.0393  -15.2999 C   0  0  0  0  0  0  0  0  0  0  0  0
   19.5223   -8.6385  -14.3847 O   0  0  0  0  0  0  0  0  0  0  0  0
   21.7136   -4.0574  -13.5605 N   0  0  0  0  0  0  0  0  0  0  0  0
   22.1404   -5.1092  -14.4685 C   0  0  0  0  0  0  0  0  0  0  0  0
   23.3782   -5.1310  -14.6575 O   0  0  0  0  0  0  0  0  0  0  0  0
   21.1483   -6.0217  -15.0677 C   0  0  0  0  0  0  0  0  0  0  0  0
   19.7573   -5.7643  -14.6223 C   0  0  2  0  0  0  0  0  0  0  0  0
   18.7861   -6.6360  -15.2475 N   0  0  0  0  0  0  0  0  0  0  0  0
   19.3771   -4.3678  -14.8946 C   0  0  0  0  0  0  0  0  0  0  0  0
   19.1835   -3.8419  -16.0075 O   0  0  0  0  0  0  0  0  0  0  0  0
   19.2107   -3.5206  -13.7700 O   0  0  0  0  0  0  0  0  0  0  0  0
  2  4  1  0
  2  1  1  6
  3  2  1  0
  4  6  1  0
  4  5  1  6
  6  7  2  0
  9  8  1  1
  9 11  1  0
 10  9  1  0
 10  6  1  0
 11 12  2  0
 11 18  1  0
 13 14  1  0
 14 16  1  0
 14 15  2  0
 17 16  1  6
 17 19  1  0
 18 17  1  0
 19 20  2  0
 19 21  1  0
M  END
$$$$
