VAN.pdb
     RDKit          3D

 21 20  0  0  1  0  0  0  0  0999 V2000
   22.6788  -16.3847  -18.2671 C   0  0  0  0  0  0  0  0  0  0  0  0
   21.9764  -17.6052  -17.7717 C   0  0  2  0  0  0  0  0  0  0  0  0
   20.4984  -17.3957  -17.8062 C   0  0  0  0  0  0  0  0  0  0  0  0
   22.4237  -17.9959  -16.3585 C   0  0  2  0  0  0  0  0  0  0  0  0
   21.9336  -17.0098  -15.4134 N   0  0  0  0  0  0  0  0  0  0  0  0
   23.8878  -18.1261  -16.3226 C   0  0  0  0  0  0  0  0  0  0  0  0
   24.4241  -19.0667  -16.9629 O   0  0  0  0  0  0  0  0  0  0  0  0
   26.9385  -16.2696  -15.0591 C   0  0  0  0  0  0  0  0  0  0  0  0
   26.1896  -17.4950  -15.5200 C   0  0  2  0  0  0  0  0  0  0  0  0
   24.7670  -17.2652  -15.6139 N   0  0  0  0  0  0  0  0  0  0  0  0
   26.5234  -18.6427  -14.6462 C   0  0  0  0  0  0  0  0  0  0  0  0
   27.6883  -19.1540  -14.5906 O   0  0  0  0  0  0  0  0  0  0  0  0
   26.2957  -22.2151  -10.9477 N   0  0  0  0  0  0  0  0  0  0  0  0
   25.8211  -20.9157  -10.5012 C   0  0  0  0  0  0  0  0  0  0  0  0
   25.6557  -20.8456   -9.2619 O   0  0  0  0  0  0  0  0  0  0  0  0
   25.5819  -19.8361  -11.4776 C   0  0  0  0  0  0  0  0  0  0  0  0
   25.7006  -20.2734  -12.8897 C   0  0  2  0  0  0  0  0  0  0  0  0
   25.5135  -19.1975  -13.8392 N   0  0  0  0  0  0  0  0  0  0  0  0
   24.7239  -21.3350  -13.1862 C   0  0  0  0  0  0  0  0  0  0  0  0
   23.7074  -21.2466  -13.9015 O   0  0  0  0  0  0  0  0  0  0  0  0
   24.9593  -22.6022  -12.5956 O   0  0  0  0  0  0  0  0  0  0  0  0
  2  4  1  0
  2  1  1  1
  3  2  1  0
  4  6  1  0
  4  5  1  1
  6  7  2  0
  9  8  1  1
  9 11  1  0
 10  9  1  0
 10  6  1  0
 11 12  2  0
 11 18  1  0
 13 14  1  0
 14 16  1  0
 14 15  2  0
 17 16  1  1
 17 19  1  0
 18 17  1  0
 19 20  2  0
 19 21  1  0
M  END
$$$$
