VAN.pdb
     RDKit          3D

 21 20  0  0  1  0  0  0  0  0999 V2000
   19.1687  -23.0491  -13.8328 C   0  0  0  0  0  0  0  0  0  0  0  0
   20.2728  -24.0536  -13.8573 C   0  0  2  0  0  0  0  0  0  0  0  0
   20.3231  -24.7277  -15.1887 C   0  0  0  0  0  0  0  0  0  0  0  0
   20.1319  -25.0945  -12.7409 C   0  0  2  0  0  0  0  0  0  0  0  0
   19.3546  -26.2176  -13.2311 N   0  0  0  0  0  0  0  0  0  0  0  0
   19.5256  -24.4689  -11.5564 C   0  0  0  0  0  0  0  0  0  0  0  0
   20.1258  -23.5079  -11.0099 O   0  0  0  0  0  0  0  0  0  0  0  0
   16.4759  -23.5240  -10.0114 C   0  0  0  0  0  0  0  0  0  0  0  0
   17.7706  -24.2568   -9.7632 C   0  0  2  0  0  0  0  0  0  0  0  0
   18.2967  -24.8626  -10.9638 N   0  0  0  0  0  0  0  0  0  0  0  0
   17.5890  -25.2342   -8.6659 C   0  0  0  0  0  0  0  0  0  0  0  0
   17.4030  -26.4772   -8.8704 O   0  0  0  0  0  0  0  0  0  0  0  0
   18.5503  -27.6416   -3.9089 N   0  0  0  0  0  0  0  0  0  0  0  0
   18.1847  -26.2347   -3.9090 C   0  0  0  0  0  0  0  0  0  0  0  0
   17.6839  -25.8510   -2.8273 O   0  0  0  0  0  0  0  0  0  0  0  0
   18.4143  -25.4073   -5.1084 C   0  0  0  0  0  0  0  0  0  0  0  0
   17.3909  -25.5939   -6.1654 C   0  0  2  0  0  0  0  0  0  0  0  0
   17.6224  -24.7758   -7.3363 N   0  0  0  0  0  0  0  0  0  0  0  0
   16.0471  -25.2942   -5.6427 C   0  0  0  0  0  0  0  0  0  0  0  0
   15.4244  -24.2187   -5.7344 O   0  0  0  0  0  0  0  0  0  0  0  0
   15.3805  -26.3411   -4.9574 O   0  0  0  0  0  0  0  0  0  0  0  0
  2  4  1  0
  2  1  1  6
  3  2  1  0
  4  6  1  0
  4  5  1  6
  6  7  2  0
  9  8  1  6
  9 11  1  0
 10  9  1  0
 10  6  1  0
 11 12  2  0
 11 18  1  0
 13 14  1  0
 14 16  1  0
 14 15  2  0
 17 16  1  1
 17 19  1  0
 18 17  1  0
 19 20  2  0
 19 21  1  0
M  END
$$$$
