VAN.pdb
     RDKit          3D

 21 20  0  0  1  0  0  0  0  0999 V2000
   16.6832  -10.4065  -10.5855 C   0  0  0  0  0  0  0  0  0  0  0  0
   15.7583  -11.4094  -11.1914 C   0  0  2  0  0  0  0  0  0  0  0  0
   16.5383  -12.5507  -11.7560 C   0  0  0  0  0  0  0  0  0  0  0  0
   14.8641  -10.7919  -12.2726 C   0  0  2  0  0  0  0  0  0  0  0  0
   13.9422  -11.7999  -12.7622 N   0  0  0  0  0  0  0  0  0  0  0  0
   15.7007  -10.2311  -13.3439 C   0  0  0  0  0  0  0  0  0  0  0  0
   16.3534  -11.0211  -14.0735 O   0  0  0  0  0  0  0  0  0  0  0  0
   15.9979   -7.6287  -15.7546 C   0  0  0  0  0  0  0  0  0  0  0  0
   16.7332   -8.3393  -14.6459 C   0  0  2  0  0  0  0  0  0  0  0  0
   15.8388   -8.8477  -13.6326 N   0  0  0  0  0  0  0  0  0  0  0  0
   17.7769   -7.4495  -14.0881 C   0  0  0  0  0  0  0  0  0  0  0  0
   17.6284   -6.8069  -12.9988 O   0  0  0  0  0  0  0  0  0  0  0  0
   22.2592   -4.8095  -13.7115 N   0  0  0  0  0  0  0  0  0  0  0  0
   22.4386   -5.7900  -14.7695 C   0  0  0  0  0  0  0  0  0  0  0  0
   23.5853   -5.7749  -15.2724 O   0  0  0  0  0  0  0  0  0  0  0  0
   21.3268   -6.6799  -15.1543 C   0  0  0  0  0  0  0  0  0  0  0  0
   20.0734   -6.4255  -14.4035 C   0  0  2  0  0  0  0  0  0  0  0  0
   18.9886   -7.3029  -14.7877 N   0  0  0  0  0  0  0  0  0  0  0  0
   19.6352   -5.0314  -14.5858 C   0  0  0  0  0  0  0  0  0  0  0  0
   19.0435   -4.5492  -15.5708 O   0  0  0  0  0  0  0  0  0  0  0  0
   19.9139   -4.1310  -13.5268 O   0  0  0  0  0  0  0  0  0  0  0  0
  2  4  1  0
  2  1  1  6
  3  2  1  0
  4  6  1  0
  4  5  1  6
  6  7  2  0
  9  8  1  6
  9 11  1  0
 10  9  1  0
 10  6  1  0
 11 12  2  0
 11 18  1  0
 13 14  1  0
 14 16  1  0
 14 15  2  0
 17 16  1  6
 17 19  1  0
 18 17  1  0
 19 20  2  0
 19 21  1  0
M  END
$$$$
