VCA.pdb
     RDKit          3D

 19 18  0  0  1  0  0  0  0  0999 V2000
   19.2093  -12.4767  -15.4584 C   0  0  0  0  0  0  0  0  0  0  0  0
   18.2407  -12.1263  -16.5738 C   0  0  2  0  0  0  0  0  0  0  0  0
   18.0888  -13.3583  -17.4322 C   0  0  0  0  0  0  0  0  0  0  0  0
   18.8351  -10.9774  -17.3406 C   0  0  2  0  0  0  0  0  0  0  0  0
   20.0668  -11.4221  -17.9590 N   0  0  0  0  0  0  0  0  0  0  0  0
   19.0395   -9.7723  -16.5007 C   0  0  0  0  0  0  0  0  0  0  0  0
   18.0623   -9.2120  -15.9420 O   0  0  0  0  0  0  0  0  0  0  0  0
   20.3177   -9.1905  -16.2800 N   0  0  0  0  0  0  0  0  0  0  0  0
   20.5292   -8.0294  -15.4345 C   0  0  1  0  0  0  0  0  0  0  0  0
   21.9986   -8.0664  -15.0363 C   0  0  0  0  0  0  0  0  0  0  0  0
   22.3078   -9.2955  -13.7487 S   0  0  0  0  0  0  0  0  0  0  0  0
   20.1811   -6.7699  -16.1278 C   0  0  0  0  0  0  0  0  0  0  0  0
   20.3383   -6.7429  -17.3761 O   0  0  0  0  0  0  0  0  0  0  0  0
   18.1172   -4.8384  -17.1013 C   0  0  0  0  0  0  0  0  0  0  0  0
   19.2686   -4.4159  -16.2043 C   0  0  2  0  0  0  0  0  0  0  0  0
   19.6927   -5.6130  -15.5003 N   0  0  0  0  0  0  0  0  0  0  0  0
   18.7304   -3.3933  -15.2708 C   0  0  0  0  0  0  0  0  0  0  0  0
   18.5173   -2.1230  -15.7886 O   0  0  0  0  0  0  0  0  0  0  0  0
   18.4731   -3.6344  -14.0758 O   0  0  0  0  0  0  0  0  0  0  0  0
  2  3  1  6
  2  1  1  0
  4  5  1  1
  4  2  1  0
  6  4  1  0
  7  6  2  0
  8  6  1  0
  9  8  1  0
  9 12  1  0
  9 10  1  6
 11 10  1  0
 12 16  1  0
 13 12  2  0
 15 14  1  6
 16 15  1  0
 17 18  1  0
 17 15  1  0
 19 17  2  0
M  END
$$$$
