VCA.pdb
     RDKit          3D

 19 18  0  0  1  0  0  0  0  0999 V2000
   18.6600  -12.2252  -17.7497 C   0  0  0  0  0  0  0  0  0  0  0  0
   18.3835  -12.6334  -16.3138 C   0  0  2  0  0  0  0  0  0  0  0  0
   17.0862  -13.4046  -16.3144 C   0  0  0  0  0  0  0  0  0  0  0  0
   18.2873  -11.3733  -15.4990 C   0  0  2  0  0  0  0  0  0  0  0  0
   17.0963  -10.6534  -15.8993 N   0  0  0  0  0  0  0  0  0  0  0  0
   19.5044  -10.5317  -15.5992 C   0  0  0  0  0  0  0  0  0  0  0  0
   20.6133  -10.9644  -15.1941 O   0  0  0  0  0  0  0  0  0  0  0  0
   19.4947   -9.2188  -16.1445 N   0  0  0  0  0  0  0  0  0  0  0  0
   20.6688   -8.3660  -16.1888 C   0  0  1  0  0  0  0  0  0  0  0  0
   20.8722   -8.0135  -17.6563 C   0  0  0  0  0  0  0  0  0  0  0  0
   22.4914   -8.5508  -18.2508 S   0  0  0  0  0  0  0  0  0  0  0  0
   20.5055   -7.1567  -15.3526 C   0  0  0  0  0  0  0  0  0  0  0  0
   19.4557   -6.4834  -15.5209 O   0  0  0  0  0  0  0  0  0  0  0  0
   22.2405   -5.6522  -12.4270 C   0  0  0  0  0  0  0  0  0  0  0  0
   21.2445   -5.5292  -13.5679 C   0  0  2  0  0  0  0  0  0  0  0  0
   21.4280   -6.7095  -14.3936 N   0  0  0  0  0  0  0  0  0  0  0  0
   21.5896   -4.2864  -14.3048 C   0  0  0  0  0  0  0  0  0  0  0  0
   21.1669   -3.0885  -13.7448 O   0  0  0  0  0  0  0  0  0  0  0  0
   22.2266   -4.2875  -15.3756 O   0  0  0  0  0  0  0  0  0  0  0  0
  2  3  1  6
  2  1  1  0
  4  5  1  6
  4  2  1  0
  6  4  1  0
  7  6  2  0
  8  6  1  0
  9  8  1  0
  9 12  1  0
  9 10  1  6
 11 10  1  0
 12 16  1  0
 13 12  2  0
 15 14  1  1
 16 15  1  0
 17 18  1  0
 17 15  1  0
 19 17  2  0
M  END
$$$$
