VCA.pdb
     RDKit          3D

 19 18  0  0  1  0  0  0  0  0999 V2000
   18.6041  -10.3954  -19.1414 C   0  0  0  0  0  0  0  0  0  0  0  0
   20.1159  -10.5356  -19.1499 C   0  0  2  0  0  0  0  0  0  0  0  0
   20.4790  -11.3443  -20.3714 C   0  0  0  0  0  0  0  0  0  0  0  0
   20.5096  -11.2330  -17.8773 C   0  0  2  0  0  0  0  0  0  0  0  0
   19.8860  -12.5398  -17.8539 N   0  0  0  0  0  0  0  0  0  0  0  0
   20.1848  -10.4414  -16.6658 C   0  0  0  0  0  0  0  0  0  0  0  0
   19.0166  -10.4387  -16.2009 O   0  0  0  0  0  0  0  0  0  0  0  0
   21.1471   -9.6573  -15.9728 N   0  0  0  0  0  0  0  0  0  0  0  0
   20.8128   -8.7851  -14.8614 C   0  0  1  0  0  0  0  0  0  0  0  0
   21.4641   -9.4072  -13.6334 C   0  0  0  0  0  0  0  0  0  0  0  0
   21.2170   -8.3887  -12.1618 S   0  0  0  0  0  0  0  0  0  0  0  0
   21.2795   -7.3995  -15.0862 C   0  0  0  0  0  0  0  0  0  0  0  0
   22.4903   -7.2476  -15.3938 O   0  0  0  0  0  0  0  0  0  0  0  0
   19.7305   -3.9988  -15.0836 C   0  0  0  0  0  0  0  0  0  0  0  0
   20.9442   -4.9005  -15.2345 C   0  0  2  0  0  0  0  0  0  0  0  0
   20.4775   -6.2521  -14.9822 N   0  0  0  0  0  0  0  0  0  0  0  0
   21.9316   -4.4627  -14.2147 C   0  0  0  0  0  0  0  0  0  0  0  0
   22.9050   -3.5643  -14.6305 O   0  0  0  0  0  0  0  0  0  0  0  0
   21.9124   -4.8649  -13.0356 O   0  0  0  0  0  0  0  0  0  0  0  0
  2  3  1  6
  2  1  1  0
  4  5  1  1
  4  2  1  0
  6  4  1  0
  7  6  2  0
  8  6  1  0
  9  8  1  0
  9 12  1  0
  9 10  1  1
 11 10  1  0
 12 16  1  0
 13 12  2  0
 15 14  1  1
 16 15  1  0
 17 18  1  0
 17 15  1  0
 19 17  2  0
M  END
$$$$
