VCA.pdb
     RDKit          3D

 19 18  0  0  1  0  0  0  0  0999 V2000
   17.0283  -10.3650  -18.1131 C   0  0  0  0  0  0  0  0  0  0  0  0
   18.3746  -11.0158  -17.8505 C   0  0  2  0  0  0  0  0  0  0  0  0
   18.5154  -12.1539  -18.8316 C   0  0  0  0  0  0  0  0  0  0  0  0
   18.3699  -11.4992  -16.4266 C   0  0  2  0  0  0  0  0  0  0  0  0
   17.2829  -12.4417  -16.2618 N   0  0  0  0  0  0  0  0  0  0  0  0
   18.2962  -10.3899  -15.4450 C   0  0  0  0  0  0  0  0  0  0  0  0
   17.1861   -9.8899  -15.1308 O   0  0  0  0  0  0  0  0  0  0  0  0
   19.4442   -9.8369  -14.8147 N   0  0  0  0  0  0  0  0  0  0  0  0
   19.3971   -8.6621  -13.9629 C   0  0  1  0  0  0  0  0  0  0  0  0
   19.6787   -9.1597  -12.5514 C   0  0  0  0  0  0  0  0  0  0  0  0
   19.8094   -7.7921  -11.3781 S   0  0  0  0  0  0  0  0  0  0  0  0
   20.3721   -7.6332  -14.3857 C   0  0  0  0  0  0  0  0  0  0  0  0
   21.5640   -8.0057  -14.5415 O   0  0  0  0  0  0  0  0  0  0  0  0
   20.2626   -4.0251  -15.3351 C   0  0  0  0  0  0  0  0  0  0  0  0
   21.0504   -5.2681  -14.9566 C   0  0  2  0  0  0  0  0  0  0  0  0
   20.0674   -6.2837  -14.6236 N   0  0  0  0  0  0  0  0  0  0  0  0
   21.8829   -4.9052  -13.7810 C   0  0  0  0  0  0  0  0  0  0  0  0
   23.0227   -4.1526  -14.0291 O   0  0  0  0  0  0  0  0  0  0  0  0
   21.5974   -5.2454  -12.6169 O   0  0  0  0  0  0  0  0  0  0  0  0
  2  3  1  6
  2  1  1  0
  4  5  1  6
  4  2  1  0
  6  4  1  0
  7  6  2  0
  8  6  1  0
  9  8  1  0
  9 12  1  0
  9 10  1  1
 11 10  1  0
 12 16  1  0
 13 12  2  0
 15 14  1  1
 16 15  1  0
 17 18  1  0
 17 15  1  0
 19 17  2  0
M  END
$$$$
