VCA.pdb
     RDKit          3D

 19 18  0  0  1  0  0  0  0  0999 V2000
   23.0742  -13.6311  -15.1339 C   0  0  0  0  0  0  0  0  0  0  0  0
   23.4104  -12.1925  -15.4835 C   0  0  2  0  0  0  0  0  0  0  0  0
   22.7565  -11.3187  -14.4411 C   0  0  0  0  0  0  0  0  0  0  0  0
   22.8676  -11.9261  -16.8603 C   0  0  2  0  0  0  0  0  0  0  0  0
   23.4511  -12.8804  -17.7801 N   0  0  0  0  0  0  0  0  0  0  0  0
   23.0844  -10.5267  -17.3010 C   0  0  0  0  0  0  0  0  0  0  0  0
   24.2176  -10.1515  -17.6960 O   0  0  0  0  0  0  0  0  0  0  0  0
   22.0533   -9.5480  -17.3047 N   0  0  0  0  0  0  0  0  0  0  0  0
   22.2442   -8.1916  -17.7859 C   0  0  1  0  0  0  0  0  0  0  0  0
   21.4297   -8.0862  -19.0684 C   0  0  0  0  0  0  0  0  0  0  0  0
   21.4359   -6.4025  -19.7233 S   0  0  0  0  0  0  0  0  0  0  0  0
   21.8237   -7.1859  -16.7859 C   0  0  0  0  0  0  0  0  0  0  0  0
   20.7810   -7.4368  -16.1273 O   0  0  0  0  0  0  0  0  0  0  0  0
   23.1028   -3.8923  -15.5680 C   0  0  0  0  0  0  0  0  0  0  0  0
   22.0553   -4.9928  -15.5544 C   0  0  2  0  0  0  0  0  0  0  0  0
   22.4969   -5.9831  -16.5203 N   0  0  0  0  0  0  0  0  0  0  0  0
   20.7712   -4.3661  -15.9607 C   0  0  0  0  0  0  0  0  0  0  0  0
   20.0527   -3.7114  -14.9695 O   0  0  0  0  0  0  0  0  0  0  0  0
   20.3344   -4.4093  -17.1268 O   0  0  0  0  0  0  0  0  0  0  0  0
  2  3  1  1
  2  1  1  0
  4  5  1  6
  4  2  1  0
  6  4  1  0
  7  6  2  0
  8  6  1  0
  9  8  1  0
  9 12  1  0
  9 10  1  6
 11 10  1  0
 12 16  1  0
 13 12  2  0
 15 14  1  6
 16 15  1  0
 17 18  1  0
 17 15  1  0
 19 17  2  0
M  END
$$$$
