VCA.pdb
     RDKit          3D

 19 18  0  0  1  0  0  0  0  0999 V2000
   18.3336  -11.6235  -18.2953 C   0  0  0  0  0  0  0  0  0  0  0  0
   19.2413  -12.4643  -17.4154 C   0  0  2  0  0  0  0  0  0  0  0  0
   18.4643  -13.6992  -17.0292 C   0  0  0  0  0  0  0  0  0  0  0  0
   19.6030  -11.6309  -16.2172 C   0  0  2  0  0  0  0  0  0  0  0  0
   18.3981  -11.3613  -15.4605 N   0  0  0  0  0  0  0  0  0  0  0  0
   20.3203  -10.3848  -16.5811 C   0  0  0  0  0  0  0  0  0  0  0  0
   21.4776  -10.4355  -17.0700 O   0  0  0  0  0  0  0  0  0  0  0  0
   19.7602   -9.0900  -16.4051 N   0  0  0  0  0  0  0  0  0  0  0  0
   20.5082   -7.8634  -16.6144 C   0  0  1  0  0  0  0  0  0  0  0  0
   20.0376   -7.3122  -17.9538 C   0  0  0  0  0  0  0  0  0  0  0  0
   18.2496   -7.0541  -17.9752 S   0  0  0  0  0  0  0  0  0  0  0  0
   20.2968   -6.8932  -15.5181 C   0  0  0  0  0  0  0  0  0  0  0  0
   19.1561   -6.8711  -14.9869 O   0  0  0  0  0  0  0  0  0  0  0  0
   22.3855   -4.4201  -13.6571 C   0  0  0  0  0  0  0  0  0  0  0  0
   21.0309   -5.0259  -13.9837 C   0  0  2  0  0  0  0  0  0  0  0  0
   21.2672   -6.0032  -15.0313 N   0  0  0  0  0  0  0  0  0  0  0  0
   20.1678   -3.9134  -14.4570 C   0  0  0  0  0  0  0  0  0  0  0  0
   19.6026   -3.1013  -13.4832 O   0  0  0  0  0  0  0  0  0  0  0  0
   19.9436   -3.6949  -15.6630 O   0  0  0  0  0  0  0  0  0  0  0  0
  2  3  1  1
  2  1  1  0
  4  5  1  6
  4  2  1  0
  6  4  1  0
  7  6  2  0
  8  6  1  0
  9  8  1  0
  9 12  1  0
  9 10  1  6
 11 10  1  0
 12 16  1  0
 13 12  2  0
 15 14  1  6
 16 15  1  0
 17 18  1  0
 17 15  1  0
 19 17  2  0
M  END
$$$$
