VCA.pdb
     RDKit          3D

 19 18  0  0  1  0  0  0  0  0999 V2000
   13.3573  -13.4708  -16.4821 C   0  0  0  0  0  0  0  0  0  0  0  0
   13.8960  -12.3578  -15.6012 C   0  0  2  0  0  0  0  0  0  0  0  0
   13.5738  -11.0534  -16.2885 C   0  0  0  0  0  0  0  0  0  0  0  0
   15.3785  -12.5699  -15.4656 C   0  0  2  0  0  0  0  0  0  0  0  0
   15.6060  -13.8436  -14.8151 N   0  0  0  0  0  0  0  0  0  0  0  0
   16.0543  -11.4562  -14.7567 C   0  0  0  0  0  0  0  0  0  0  0  0
   15.9273  -11.3224  -13.5130 O   0  0  0  0  0  0  0  0  0  0  0  0
   16.8660  -10.4959  -15.4202 N   0  0  0  0  0  0  0  0  0  0  0  0
   17.5655   -9.4291  -14.7272 C   0  0  1  0  0  0  0  0  0  0  0  0
   19.0367   -9.5953  -15.0839 C   0  0  0  0  0  0  0  0  0  0  0  0
   20.0436   -8.2662  -14.3886 S   0  0  0  0  0  0  0  0  0  0  0  0
   17.0565   -8.0941  -15.1104 C   0  0  0  0  0  0  0  0  0  0  0  0
   17.0023   -7.8352  -16.3408 O   0  0  0  0  0  0  0  0  0  0  0  0
   15.2273   -5.3176  -13.5185 C   0  0  0  0  0  0  0  0  0  0  0  0
   16.1918   -5.7766  -14.5993 C   0  0  2  0  0  0  0  0  0  0  0  0
   16.6334   -7.1039  -14.2097 N   0  0  0  0  0  0  0  0  0  0  0  0
   17.3165   -4.8061  -14.6089 C   0  0  0  0  0  0  0  0  0  0  0  0
   17.0412   -3.5332  -15.0899 O   0  0  0  0  0  0  0  0  0  0  0  0
   18.4622   -5.0917  -14.2111 O   0  0  0  0  0  0  0  0  0  0  0  0
  2  3  1  6
  2  1  1  0
  4  5  1  1
  4  2  1  0
  6  4  1  0
  7  6  2  0
  8  6  1  0
  9  8  1  0
  9 12  1  0
  9 10  1  6
 11 10  1  0
 12 16  1  0
 13 12  2  0
 15 14  1  1
 16 15  1  0
 17 18  1  0
 17 15  1  0
 19 17  2  0
M  END
$$$$
