VCA.pdb
     RDKit          3D

 19 18  0  0  1  0  0  0  0  0999 V2000
   22.2824  -13.2768  -14.5032 C   0  0  0  0  0  0  0  0  0  0  0  0
   23.2472  -13.5912  -15.6326 C   0  0  2  0  0  0  0  0  0  0  0  0
   24.4121  -14.3349  -15.0262 C   0  0  0  0  0  0  0  0  0  0  0  0
   23.6711  -12.2820  -16.2389 C   0  0  2  0  0  0  0  0  0  0  0  0
   24.3690  -11.5103  -15.2317 N   0  0  0  0  0  0  0  0  0  0  0  0
   22.5370  -11.5293  -16.8278 C   0  0  0  0  0  0  0  0  0  0  0  0
   21.8550  -12.0294  -17.7582 O   0  0  0  0  0  0  0  0  0  0  0  0
   22.1596  -10.2305  -16.3897 N   0  0  0  0  0  0  0  0  0  0  0  0
   20.9993   -9.5233  -16.9009 C   0  0  1  0  0  0  0  0  0  0  0  0
   19.7903  -10.3491  -16.4819 C   0  0  0  0  0  0  0  0  0  0  0  0
   19.6356  -10.4363  -14.6840 S   0  0  0  0  0  0  0  0  0  0  0  0
   20.9232   -8.1395  -16.3837 C   0  0  0  0  0  0  0  0  0  0  0  0
   21.3291   -7.9460  -15.2083 O   0  0  0  0  0  0  0  0  0  0  0  0
   19.8939   -4.8071  -17.7205 C   0  0  0  0  0  0  0  0  0  0  0  0
   20.3175   -5.6938  -16.5616 C   0  0  2  0  0  0  0  0  0  0  0  0
   20.4356   -7.0363  -17.1021 N   0  0  0  0  0  0  0  0  0  0  0  0
   19.2415   -5.6069  -15.5411 C   0  0  0  0  0  0  0  0  0  0  0  0
   19.2155   -4.4635  -14.7541 O   0  0  0  0  0  0  0  0  0  0  0  0
   18.3895   -6.5010  -15.3761 O   0  0  0  0  0  0  0  0  0  0  0  0
  2  3  1  1
  2  1  1  0
  4  5  1  1
  4  2  1  0
  6  4  1  0
  7  6  2  0
  8  6  1  0
  9  8  1  0
  9 12  1  0
  9 10  1  1
 11 10  1  0
 12 16  1  0
 13 12  2  0
 15 14  1  6
 16 15  1  0
 17 18  1  0
 17 15  1  0
 19 17  2  0
M  END
$$$$
