KGK.pdb
     RDKit          3D

 23 22  0  0  1  0  0  0  0  0999 V2000
   26.9624  -21.6666  -15.7542 N   0  0  0  0  0  0  0  0  0  0  0  0
   27.5213  -20.7542  -14.7867 C   0  0  1  0  0  0  0  0  0  0  0  0
   27.7025  -19.4201  -15.4787 C   0  0  0  0  0  0  0  0  0  0  0  0
   28.2013  -19.6036  -16.9121 C   0  0  0  0  0  0  0  0  0  0  0  0
   28.5221  -18.2153  -17.4339 C   0  0  0  0  0  0  0  0  0  0  0  0
   28.9133  -18.2481  -18.8938 C   0  0  0  0  0  0  0  0  0  0  0  0
   29.3078  -16.9439  -19.3640 N   0  0  0  0  0  0  0  0  0  0  0  0
   26.5567  -20.5485  -13.6845 C   0  0  0  0  0  0  0  0  0  0  0  0
   26.8625  -19.7906  -12.7411 O   0  0  0  0  0  0  0  0  0  0  0  0
   25.3082  -21.2121  -13.7180 N   0  0  0  0  0  0  0  0  0  0  0  0
   24.2549  -20.9560  -12.7727 C   0  0  0  0  0  0  0  0  0  0  0  0
   22.9540  -20.7285  -13.4782 C   0  0  0  0  0  0  0  0  0  0  0  0
   22.9438  -19.9543  -14.4658 O   0  0  0  0  0  0  0  0  0  0  0  0
   21.7687  -21.3558  -13.0600 N   0  0  0  0  0  0  0  0  0  0  0  0
   20.4892  -21.2220  -13.8596 C   0  0  1  0  0  0  0  0  0  0  0  0
   20.0610  -22.6258  -14.0132 C   0  0  0  0  0  0  0  0  0  0  0  0
   18.9281  -23.0562  -14.8108 C   0  0  0  0  0  0  0  0  0  0  0  0
   18.5370  -24.4767  -14.9303 C   0  0  0  0  0  0  0  0  0  0  0  0
   17.1824  -24.4904  -15.7178 C   0  0  0  0  0  0  0  0  0  0  0  0
   16.7144  -25.8453  -15.8529 N   0  0  0  0  0  0  0  0  0  0  0  0
   19.6783  -20.3197  -13.0484 C   0  0  0  0  0  0  0  0  0  0  0  0
   18.6038  -19.5730  -13.5827 O   0  0  0  0  0  0  0  0  0  0  0  0
   19.8757  -20.1462  -11.8384 O   0  0  0  0  0  0  0  0  0  0  0  0
  2  1  1  6
  3  4  1  0
  3  2  1  0
  5  4  1  0
  5  6  1  0
  7  6  1  0
  8  2  1  0
  8  9  2  0
 10  8  1  0
 11 10  1  0
 11 12  1  0
 12 13  2  0
 12 14  1  0
 14 15  1  0
 15 16  1  1
 15 21  1  0
 17 16  1  0
 18 17  1  0
 19 18  1  0
 20 19  1  0
 21 23  2  0
 21 22  1  0
M  END
$$$$
