KGK.pdb
     RDKit          3D

 23 22  0  0  1  0  0  0  0  0999 V2000
   20.7459  -19.9558  -12.6103 N   0  0  0  0  0  0  0  0  0  0  0  0
   20.0854  -20.2885  -13.8488 C   0  0  1  0  0  0  0  0  0  0  0  0
   21.1642  -20.5360  -14.8815 C   0  0  0  0  0  0  0  0  0  0  0  0
   22.0133  -19.2847  -15.1054 C   0  0  0  0  0  0  0  0  0  0  0  0
   23.1240  -19.6867  -16.0579 C   0  0  0  0  0  0  0  0  0  0  0  0
   24.1290  -18.5722  -16.2402 C   0  0  0  0  0  0  0  0  0  0  0  0
   25.2419  -18.9929  -17.0540 N   0  0  0  0  0  0  0  0  0  0  0  0
   19.3358  -21.5531  -13.6866 C   0  0  0  0  0  0  0  0  0  0  0  0
   18.7171  -22.0238  -14.6632 O   0  0  0  0  0  0  0  0  0  0  0  0
   19.3326  -22.2054  -12.4318 N   0  0  0  0  0  0  0  0  0  0  0  0
   18.6626  -23.4562  -12.1963 C   0  0  0  0  0  0  0  0  0  0  0  0
   17.1801  -23.2580  -12.1279 C   0  0  0  0  0  0  0  0  0  0  0  0
   16.7286  -22.1014  -12.3099 O   0  0  0  0  0  0  0  0  0  0  0  0
   16.3046  -24.3255  -11.8685 N   0  0  0  0  0  0  0  0  0  0  0  0
   14.8033  -24.1242  -11.8728 C   0  0  1  0  0  0  0  0  0  0  0  0
   14.2967  -25.5059  -11.9804 C   0  0  0  0  0  0  0  0  0  0  0  0
   12.8964  -25.8585  -12.1207 C   0  0  0  0  0  0  0  0  0  0  0  0
   12.4411  -27.2587  -12.2526 C   0  0  0  0  0  0  0  0  0  0  0  0
   10.8870  -27.1950  -12.4426 C   0  0  0  0  0  0  0  0  0  0  0  0
   10.3355  -28.5231  -12.3720 N   0  0  0  0  0  0  0  0  0  0  0  0
   14.5608  -23.3753  -10.6440 C   0  0  0  0  0  0  0  0  0  0  0  0
   13.4441  -22.5249  -10.4779 O   0  0  0  0  0  0  0  0  0  0  0  0
   15.3153  -23.4330   -9.6640 O   0  0  0  0  0  0  0  0  0  0  0  0
  2  1  1  1
  3  4  1  0
  3  2  1  0
  5  4  1  0
  5  6  1  0
  7  6  1  0
  8  2  1  0
  8  9  2  0
 10  8  1  0
 11 10  1  0
 11 12  1  0
 12 13  2  0
 12 14  1  0
 14 15  1  0
 15 16  1  1
 15 21  1  0
 17 16  1  0
 18 17  1  0
 19 18  1  0
 20 19  1  0
 21 23  2  0
 21 22  1  0
M  END
$$$$
