KGK.pdb
     RDKit          3D

 23 22  0  0  1  0  0  0  0  0999 V2000
   17.4603  -23.0945  -12.4457 N   0  0  0  0  0  0  0  0  0  0  0  0
   18.7679  -23.6862  -12.3010 C   0  0  1  0  0  0  0  0  0  0  0  0
   19.7178  -22.8982  -13.1774 C   0  0  0  0  0  0  0  0  0  0  0  0
   19.9428  -23.5976  -14.5181 C   0  0  0  0  0  0  0  0  0  0  0  0
   20.7714  -22.6470  -15.3621 C   0  0  0  0  0  0  0  0  0  0  0  0
   20.9429  -23.1634  -16.7726 C   0  0  0  0  0  0  0  0  0  0  0  0
   21.5681  -22.1809  -17.6221 N   0  0  0  0  0  0  0  0  0  0  0  0
   19.2300  -23.5318  -10.9045 C   0  0  0  0  0  0  0  0  0  0  0  0
   20.1639  -22.7419  -10.6559 O   0  0  0  0  0  0  0  0  0  0  0  0
   18.6078  -24.2793   -9.8778 N   0  0  0  0  0  0  0  0  0  0  0  0
   19.0290  -24.2316   -8.5033 C   0  0  0  0  0  0  0  0  0  0  0  0
   18.1231  -25.0567   -7.6430 C   0  0  0  0  0  0  0  0  0  0  0  0
   17.1308  -25.6037   -8.1824 O   0  0  0  0  0  0  0  0  0  0  0  0
   18.3621  -25.2245   -6.2689 N   0  0  0  0  0  0  0  0  0  0  0  0
   17.4036  -26.0112   -5.3989 C   0  0  1  0  0  0  0  0  0  0  0  0
   18.2289  -26.3222   -4.2159 C   0  0  0  0  0  0  0  0  0  0  0  0
   17.8063  -27.1754   -3.1212 C   0  0  0  0  0  0  0  0  0  0  0  0
   18.6879  -27.4926   -1.9777 C   0  0  0  0  0  0  0  0  0  0  0  0
   17.7969  -28.2574   -0.9402 C   0  0  0  0  0  0  0  0  0  0  0  0
   18.6045  -28.6770    0.1754 N   0  0  0  0  0  0  0  0  0  0  0  0
   16.2661  -25.1091   -5.2508 C   0  0  0  0  0  0  0  0  0  0  0  0
   14.9502  -25.5730   -5.0254 O   0  0  0  0  0  0  0  0  0  0  0  0
   16.3751  -23.8772   -5.3125 O   0  0  0  0  0  0  0  0  0  0  0  0
  2  1  1  1
  3  4  1  0
  3  2  1  0
  5  4  1  0
  5  6  1  0
  7  6  1  0
  8  2  1  0
  8  9  2  0
 10  8  1  0
 11 10  1  0
 11 12  1  0
 12 13  2  0
 12 14  1  0
 14 15  1  0
 15 16  1  1
 15 21  1  0
 17 16  1  0
 18 17  1  0
 19 18  1  0
 20 19  1  0
 21 23  2  0
 21 22  1  0
M  END
$$$$
