KGK.pdb
     RDKit          3D

 23 22  0  0  1  0  0  0  0  0999 V2000
   24.4160  -21.3525  -20.0609 N   0  0  0  0  0  0  0  0  0  0  0  0
   25.4356  -20.3381  -19.9487 C   0  0  1  0  0  0  0  0  0  0  0  0
   25.0346  -19.1949  -20.8563 C   0  0  0  0  0  0  0  0  0  0  0  0
   26.1906  -18.7795  -21.7664 C   0  0  0  0  0  0  0  0  0  0  0  0
   27.0926  -17.8891  -20.9320 C   0  0  0  0  0  0  0  0  0  0  0  0
   28.2811  -17.4011  -21.7287 C   0  0  0  0  0  0  0  0  0  0  0  0
   29.1985  -16.6548  -20.9046 N   0  0  0  0  0  0  0  0  0  0  0  0
   25.4613  -19.8120  -18.5667 C   0  0  0  0  0  0  0  0  0  0  0  0
   26.5555  -19.7073  -17.9752 O   0  0  0  0  0  0  0  0  0  0  0  0
   24.2496  -19.4378  -17.9407 N   0  0  0  0  0  0  0  0  0  0  0  0
   24.1910  -18.8320  -16.6375 C   0  0  0  0  0  0  0  0  0  0  0  0
   24.0851  -19.8780  -15.5715 C   0  0  0  0  0  0  0  0  0  0  0  0
   23.6718  -21.0168  -15.8989 O   0  0  0  0  0  0  0  0  0  0  0  0
   24.4341  -19.6096  -14.2376 N   0  0  0  0  0  0  0  0  0  0  0  0
   24.3271  -20.6797  -13.1709 C   0  0  1  0  0  0  0  0  0  0  0  0
   25.0325  -20.0644  -12.0302 C   0  0  0  0  0  0  0  0  0  0  0  0
   25.1690  -20.6768  -10.7220 C   0  0  0  0  0  0  0  0  0  0  0  0
   25.7105  -19.9453   -9.5571 C   0  0  0  0  0  0  0  0  0  0  0  0
   25.6800  -20.9531   -8.3577 C   0  0  0  0  0  0  0  0  0  0  0  0
   26.2018  -20.3163   -7.1766 N   0  0  0  0  0  0  0  0  0  0  0  0
   22.8899  -20.9130  -13.0714 C   0  0  0  0  0  0  0  0  0  0  0  0
   21.9411  -19.8687  -13.1543 O   0  0  0  0  0  0  0  0  0  0  0  0
   22.4036  -22.0399  -12.9076 O   0  0  0  0  0  0  0  0  0  0  0  0
  2  1  1  1
  3  4  1  0
  3  2  1  0
  5  4  1  0
  5  6  1  0
  7  6  1  0
  8  2  1  0
  8  9  2  0
 10  8  1  0
 11 10  1  0
 11 12  1  0
 12 13  2  0
 12 14  1  0
 14 15  1  0
 15 16  1  1
 15 21  1  0
 17 16  1  0
 18 17  1  0
 19 18  1  0
 20 19  1  0
 21 23  2  0
 21 22  1  0
M  END
$$$$
