KGK.pdb
     RDKit          3D

 23 22  0  0  1  0  0  0  0  0999 V2000
   26.9055  -19.0300  -12.7207 N   0  0  0  0  0  0  0  0  0  0  0  0
   27.3643  -20.3585  -13.0456 C   0  0  1  0  0  0  0  0  0  0  0  0
   26.5411  -21.3311  -12.2285 C   0  0  0  0  0  0  0  0  0  0  0  0
   26.4048  -20.8603  -10.7804 C   0  0  0  0  0  0  0  0  0  0  0  0
   24.9366  -20.9982  -10.4226 C   0  0  0  0  0  0  0  0  0  0  0  0
   24.6679  -20.5561   -9.0022 C   0  0  0  0  0  0  0  0  0  0  0  0
   23.2542  -20.4843   -8.7302 N   0  0  0  0  0  0  0  0  0  0  0  0
   27.0907  -20.6425  -14.4710 C   0  0  0  0  0  0  0  0  0  0  0  0
   27.5292  -21.6959  -14.9772 O   0  0  0  0  0  0  0  0  0  0  0  0
   26.3394  -19.7188  -15.2341 N   0  0  0  0  0  0  0  0  0  0  0  0
   25.0343  -20.0118  -15.7630 C   0  0  0  0  0  0  0  0  0  0  0  0
   24.0290  -19.0156  -15.2744 C   0  0  0  0  0  0  0  0  0  0  0  0
   23.7328  -19.0232  -14.0549 O   0  0  0  0  0  0  0  0  0  0  0  0
   23.4246  -18.0914  -16.1425 N   0  0  0  0  0  0  0  0  0  0  0  0
   22.1996  -17.3071  -15.7198 C   0  0  1  0  0  0  0  0  0  0  0  0
   22.3054  -16.0844  -16.5391 C   0  0  0  0  0  0  0  0  0  0  0  0
   23.3244  -15.0661  -16.3668 C   0  0  0  0  0  0  0  0  0  0  0  0
   23.4488  -13.9075  -17.2765 C   0  0  0  0  0  0  0  0  0  0  0  0
   24.7552  -13.1559  -16.8477 C   0  0  0  0  0  0  0  0  0  0  0  0
   24.9648  -12.0202  -17.7075 N   0  0  0  0  0  0  0  0  0  0  0  0
   21.1021  -18.2352  -15.9725 C   0  0  0  0  0  0  0  0  0  0  0  0
   19.8434  -18.1167  -15.3408 O   0  0  0  0  0  0  0  0  0  0  0  0
   21.1981  -19.1891  -16.7561 O   0  0  0  0  0  0  0  0  0  0  0  0
  2  1  1  1
  3  4  1  0
  3  2  1  0
  5  4  1  0
  5  6  1  0
  7  6  1  0
  8  2  1  0
  8  9  2  0
 10  8  1  0
 11 10  1  0
 11 12  1  0
 12 13  2  0
 12 14  1  0
 14 15  1  0
 15 16  1  6
 15 21  1  0
 17 16  1  0
 18 17  1  0
 19 18  1  0
 20 19  1  0
 21 23  2  0
 21 22  1  0
M  END
$$$$
