KGK.pdb
     RDKit          3D

 23 22  0  0  1  0  0  0  0  0999 V2000
   18.6964  -22.7431  -13.7882 N   0  0  0  0  0  0  0  0  0  0  0  0
   19.5526  -23.5301  -12.9347 C   0  0  1  0  0  0  0  0  0  0  0  0
   20.9491  -22.9566  -13.0465 C   0  0  0  0  0  0  0  0  0  0  0  0
   21.5541  -23.2377  -14.4220 C   0  0  0  0  0  0  0  0  0  0  0  0
   22.8313  -24.0192  -14.1755 C   0  0  0  0  0  0  0  0  0  0  0  0
   23.6030  -24.2393  -15.4566 C   0  0  0  0  0  0  0  0  0  0  0  0
   24.8557  -24.9085  -15.2100 N   0  0  0  0  0  0  0  0  0  0  0  0
   19.1268  -23.3750  -11.5268 C   0  0  0  0  0  0  0  0  0  0  0  0
   19.8065  -22.6624  -10.7599 O   0  0  0  0  0  0  0  0  0  0  0  0
   17.9603  -24.0347  -11.0748 N   0  0  0  0  0  0  0  0  0  0  0  0
   17.9850  -25.1192  -10.1304 C   0  0  0  0  0  0  0  0  0  0  0  0
   18.0513  -24.5989   -8.7281 C   0  0  0  0  0  0  0  0  0  0  0  0
   18.9475  -23.7664   -8.4475 O   0  0  0  0  0  0  0  0  0  0  0  0
   17.1442  -25.0198   -7.7416 N   0  0  0  0  0  0  0  0  0  0  0  0
   17.2526  -24.5208   -6.3156 C   0  0  1  0  0  0  0  0  0  0  0  0
   15.8492  -24.2152   -5.9772 C   0  0  0  0  0  0  0  0  0  0  0  0
   15.4012  -23.7427   -4.6806 C   0  0  0  0  0  0  0  0  0  0  0  0
   13.9705  -23.5722   -4.3502 C   0  0  0  0  0  0  0  0  0  0  0  0
   13.9258  -22.9962   -2.8937 C   0  0  0  0  0  0  0  0  0  0  0  0
   12.5640  -22.7013   -2.5311 N   0  0  0  0  0  0  0  0  0  0  0  0
   17.9240  -25.6174   -5.6255 C   0  0  0  0  0  0  0  0  0  0  0  0
   18.7048  -25.4220   -4.4637 O   0  0  0  0  0  0  0  0  0  0  0  0
   17.8564  -26.7925   -6.0098 O   0  0  0  0  0  0  0  0  0  0  0  0
  2  1  1  6
  3  4  1  0
  3  2  1  0
  5  4  1  0
  5  6  1  0
  7  6  1  0
  8  2  1  0
  8  9  2  0
 10  8  1  0
 11 10  1  0
 11 12  1  0
 12 13  2  0
 12 14  1  0
 14 15  1  0
 15 16  1  1
 15 21  1  0
 17 16  1  0
 18 17  1  0
 19 18  1  0
 20 19  1  0
 21 23  2  0
 21 22  1  0
M  END
$$$$
