MKF.pdb
     RDKit          3D

 29 29  0  0  1  0  0  0  0  0999 V2000
    8.8672  -11.7232   20.5987 C   0  0  0  0  0  0  0  0  0  0  0  0
    7.7231  -12.2902   19.3062 S   0  0  0  0  0  0  0  0  0  0  0  0
    7.5938  -14.1022   19.3061 C   0  0  0  0  0  0  0  0  0  0  0  0
    7.4056  -14.5554   20.7349 C   0  0  0  0  0  0  0  0  0  0  0  0
    7.5057  -16.0719   20.7747 C   0  0  2  0  0  0  0  0  0  0  0  0
    6.4675  -16.6638   19.9835 N   0  0  0  0  0  0  0  0  0  0  0  0
    7.4000  -16.5552   22.1656 C   0  0  0  0  0  0  0  0  0  0  0  0
    6.3080  -16.5704   22.8034 O   0  0  0  0  0  0  0  0  0  0  0  0
    8.5447  -17.0331   22.8599 N   0  0  0  0  0  0  0  0  0  0  0  0
    8.4963  -17.5692   24.2056 C   0  0  1  0  0  0  0  0  0  0  0  0
    9.2735  -18.8960   24.1358 C   0  0  0  0  0  0  0  0  0  0  0  0
    8.3891  -19.9870   23.5941 C   0  0  0  0  0  0  0  0  0  0  0  0
    8.9391  -20.4737   22.2812 C   0  0  0  0  0  0  0  0  0  0  0  0
    8.1347  -21.6013   21.7424 C   0  0  0  0  0  0  0  0  0  0  0  0
    8.4073  -22.8641   22.4000 N   0  0  0  0  0  0  0  0  0  0  0  0
    9.2753  -16.7072   25.1136 C   0  0  0  0  0  0  0  0  0  0  0  0
   10.2948  -16.1302   24.6862 O   0  0  0  0  0  0  0  0  0  0  0  0
    8.8924  -16.5197   26.4602 N   0  0  0  0  0  0  0  0  0  0  0  0
    9.7613  -15.7350   27.3258 C   0  0  1  0  0  0  0  0  0  0  0  0
    8.9920  -14.7230   28.1083 C   0  0  0  0  0  0  0  0  0  0  0  0
    8.3330  -13.7568   27.2031 C   0  0  0  0  0  0  0  0  0  0  0  0
    8.9892  -12.6003   26.7862 C   0  0  0  0  0  0  0  0  0  0  0  0
    8.4034  -11.7061   25.9281 C   0  0  0  0  0  0  0  0  0  0  0  0
    7.1299  -11.9419   25.4544 C   0  0  0  0  0  0  0  0  0  0  0  0
    6.4782  -13.0890   25.8671 C   0  0  0  0  0  0  0  0  0  0  0  0
    7.0585  -13.9734   26.7161 C   0  0  0  0  0  0  0  0  0  0  0  0
   10.5099  -16.6512   28.2026 C   0  0  0  0  0  0  0  0  0  0  0  0
   11.3494  -16.2610   29.0322 O   0  0  0  0  0  0  0  0  0  0  0  0
   10.2836  -18.0435   28.1187 O   0  0  0  0  0  0  0  0  0  0  0  0
  2  1  1  0
  3  2  1  0
  4  5  1  0
  4  3  1  0
  5  6  1  6
  7  5  1  0
  7  8  2  0
  9  7  1  0
 10  9  1  0
 10 11  1  6
 12 11  1  0
 12 13  1  0
 13 14  1  0
 14 15  1  0
 16 18  1  0
 16 10  1  0
 17 16  2  0
 19 18  1  0
 19 27  1  0
 19 20  1  1
 21 20  1  0
 21 22  2  0
 23 22  1  0
 24 23  2  0
 25 26  2  0
 25 24  1  0
 26 21  1  0
 27 29  1  0
 28 27  2  0
M  END
$$$$
