MKF.pdb
     RDKit          3D

 29 29  0  0  1  0  0  0  0  0999 V2000
    8.4464  -11.3510   21.1205 C   0  0  0  0  0  0  0  0  0  0  0  0
    7.1508  -11.8308   19.9407 S   0  0  0  0  0  0  0  0  0  0  0  0
    7.0768  -13.6368   19.7600 C   0  0  0  0  0  0  0  0  0  0  0  0
    7.6016  -14.2540   21.0353 C   0  0  0  0  0  0  0  0  0  0  0  0
    7.4997  -15.7661   20.9142 C   0  0  2  0  0  0  0  0  0  0  0  0
    6.1386  -16.1614   20.7011 N   0  0  0  0  0  0  0  0  0  0  0  0
    8.0138  -16.4129   22.1376 C   0  0  0  0  0  0  0  0  0  0  0  0
    7.2554  -16.8529   23.0491 O   0  0  0  0  0  0  0  0  0  0  0  0
    9.4110  -16.5712   22.3461 N   0  0  0  0  0  0  0  0  0  0  0  0
    9.9734  -17.3305   23.4452 C   0  0  1  0  0  0  0  0  0  0  0  0
   11.4531  -17.5354   23.0739 C   0  0  0  0  0  0  0  0  0  0  0  0
   11.5826  -18.6234   22.0417 C   0  0  0  0  0  0  0  0  0  0  0  0
   13.0309  -18.7960   21.6731 C   0  0  0  0  0  0  0  0  0  0  0  0
   13.1919  -19.7494   20.5443 C   0  0  0  0  0  0  0  0  0  0  0  0
   14.5467  -19.8057   20.0319 N   0  0  0  0  0  0  0  0  0  0  0  0
    9.9877  -16.5036   24.6661 C   0  0  0  0  0  0  0  0  0  0  0  0
   10.2913  -15.2968   24.5852 O   0  0  0  0  0  0  0  0  0  0  0  0
    9.6648  -17.0487   25.9285 N   0  0  0  0  0  0  0  0  0  0  0  0
    9.6829  -16.1695   27.0889 C   0  0  1  0  0  0  0  0  0  0  0  0
    8.3069  -15.7397   27.4767 C   0  0  0  0  0  0  0  0  0  0  0  0
    7.9808  -14.4307   26.8706 C   0  0  0  0  0  0  0  0  0  0  0  0
    6.8614  -14.2755   26.0552 C   0  0  0  0  0  0  0  0  0  0  0  0
    6.5301  -13.0645   25.5049 C   0  0  0  0  0  0  0  0  0  0  0  0
    7.3152  -11.9587   25.7548 C   0  0  0  0  0  0  0  0  0  0  0  0
    8.4257  -12.1114   26.5636 C   0  0  0  0  0  0  0  0  0  0  0  0
    8.7528  -13.3099   27.1079 C   0  0  0  0  0  0  0  0  0  0  0  0
   10.3734  -16.8562   28.1936 C   0  0  0  0  0  0  0  0  0  0  0  0
   10.6762  -18.0613   28.1590 O   0  0  0  0  0  0  0  0  0  0  0  0
   10.7201  -16.1362   29.3591 O   0  0  0  0  0  0  0  0  0  0  0  0
  2  1  1  0
  3  2  1  0
  4  5  1  0
  4  3  1  0
  5  6  1  1
  7  5  1  0
  7  8  2  0
  9  7  1  0
 10  9  1  0
 10 11  1  6
 12 11  1  0
 12 13  1  0
 13 14  1  0
 14 15  1  0
 16 18  1  0
 16 10  1  0
 17 16  2  0
 19 18  1  0
 19 27  1  0
 19 20  1  1
 21 20  1  0
 21 22  2  0
 23 22  1  0
 24 23  2  0
 25 26  2  0
 25 24  1  0
 26 21  1  0
 27 29  1  0
 28 27  2  0
M  END
$$$$
