MKF.pdb
     RDKit          3D

 29 29  0  0  1  0  0  0  0  0999 V2000
    5.8607  -22.6319   25.4305 C   0  0  0  0  0  0  0  0  0  0  0  0
    4.1771  -22.4824   24.7641 S   0  0  0  0  0  0  0  0  0  0  0  0
    4.1902  -21.6367   23.1565 C   0  0  0  0  0  0  0  0  0  0  0  0
    5.5485  -20.9999   22.9767 C   0  0  0  0  0  0  0  0  0  0  0  0
    5.4855  -19.5766   23.5072 C   0  0  2  0  0  0  0  0  0  0  0  0
    4.2763  -18.9358   23.0811 N   0  0  0  0  0  0  0  0  0  0  0  0
    6.6475  -18.8010   23.0301 C   0  0  0  0  0  0  0  0  0  0  0  0
    7.8413  -19.1793   23.2065 O   0  0  0  0  0  0  0  0  0  0  0  0
    6.4690  -17.5719   22.3386 N   0  0  0  0  0  0  0  0  0  0  0  0
    7.5606  -16.6807   21.9995 C   0  0  1  0  0  0  0  0  0  0  0  0
    6.9320  -15.6037   21.0971 C   0  0  0  0  0  0  0  0  0  0  0  0
    8.0048  -14.7166   20.5243 C   0  0  0  0  0  0  0  0  0  0  0  0
    7.4165  -13.8509   19.4438 C   0  0  0  0  0  0  0  0  0  0  0  0
    8.4581  -13.0115   18.7961 C   0  0  0  0  0  0  0  0  0  0  0  0
    7.9633  -12.2629   17.6577 N   0  0  0  0  0  0  0  0  0  0  0  0
    8.0122  -15.9642   23.2067 C   0  0  0  0  0  0  0  0  0  0  0  0
    7.1690  -15.5700   24.0366 O   0  0  0  0  0  0  0  0  0  0  0  0
    9.3816  -15.7133   23.4451 N   0  0  0  0  0  0  0  0  0  0  0  0
    9.8000  -15.3776   24.7987 C   0  0  1  0  0  0  0  0  0  0  0  0
    8.7547  -15.7334   25.8033 C   0  0  0  0  0  0  0  0  0  0  0  0
    9.1455  -15.2621   27.1495 C   0  0  0  0  0  0  0  0  0  0  0  0
    8.8084  -13.9834   27.5889 C   0  0  0  0  0  0  0  0  0  0  0  0
    9.1408  -13.5385   28.8421 C   0  0  0  0  0  0  0  0  0  0  0  0
    9.8278  -14.3662   29.7051 C   0  0  0  0  0  0  0  0  0  0  0  0
   10.1626  -15.6350   29.2703 C   0  0  0  0  0  0  0  0  0  0  0  0
    9.8332  -16.0746   28.0301 C   0  0  0  0  0  0  0  0  0  0  0  0
   11.0801  -16.0490   25.0797 C   0  0  0  0  0  0  0  0  0  0  0  0
   11.2163  -17.2844   25.0608 O   0  0  0  0  0  0  0  0  0  0  0  0
   12.2234  -15.2779   25.3880 O   0  0  0  0  0  0  0  0  0  0  0  0
  2  1  1  0
  3  2  1  0
  4  5  1  0
  4  3  1  0
  5  6  1  6
  7  5  1  0
  7  8  2  0
  9  7  1  0
 10  9  1  0
 10 11  1  6
 12 11  1  0
 12 13  1  0
 13 14  1  0
 14 15  1  0
 16 18  1  0
 16 10  1  0
 17 16  2  0
 19 18  1  0
 19 27  1  0
 19 20  1  1
 21 20  1  0
 21 22  2  0
 23 22  1  0
 24 23  2  0
 25 26  2  0
 25 24  1  0
 26 21  1  0
 27 29  1  0
 28 27  2  0
M  END
$$$$
