MKF.pdb
     RDKit          3D

 29 29  0  0  1  0  0  0  0  0999 V2000
    7.5539  -11.7127   21.5813 C   0  0  0  0  0  0  0  0  0  0  0  0
    7.0971  -12.1892   19.8886 S   0  0  0  0  0  0  0  0  0  0  0  0
    7.3888  -13.9610   19.6142 C   0  0  0  0  0  0  0  0  0  0  0  0
    7.9652  -14.5401   20.8850 C   0  0  0  0  0  0  0  0  0  0  0  0
    8.0640  -16.0486   20.7236 C   0  0  2  0  0  0  0  0  0  0  0  0
    6.7882  -16.6001   20.3742 N   0  0  0  0  0  0  0  0  0  0  0  0
    8.5405  -16.6669   21.9767 C   0  0  0  0  0  0  0  0  0  0  0  0
    7.7618  -17.2187   22.8064 O   0  0  0  0  0  0  0  0  0  0  0  0
    9.9226  -16.6676   22.3093 N   0  0  0  0  0  0  0  0  0  0  0  0
   10.4558  -17.2893   23.5051 C   0  0  1  0  0  0  0  0  0  0  0  0
   11.8969  -17.6883   23.1398 C   0  0  0  0  0  0  0  0  0  0  0  0
   11.8855  -18.8074   22.1331 C   0  0  0  0  0  0  0  0  0  0  0  0
   13.2950  -19.1107   21.7037 C   0  0  0  0  0  0  0  0  0  0  0  0
   13.3264  -20.1648   20.6563 C   0  0  0  0  0  0  0  0  0  0  0  0
   12.5840  -21.3554   21.0205 N   0  0  0  0  0  0  0  0  0  0  0  0
   10.5881  -16.2818   24.5737 C   0  0  0  0  0  0  0  0  0  0  0  0
   10.5130  -15.0706   24.2866 O   0  0  0  0  0  0  0  0  0  0  0  0
   10.7989  -16.6582   25.9187 N   0  0  0  0  0  0  0  0  0  0  0  0
   10.0688  -15.9493   26.9600 C   0  0  1  0  0  0  0  0  0  0  0  0
    8.6024  -15.9186   26.6822 C   0  0  0  0  0  0  0  0  0  0  0  0
    8.1665  -14.5473   26.3403 C   0  0  0  0  0  0  0  0  0  0  0  0
    7.3168  -14.3116   25.2612 C   0  0  0  0  0  0  0  0  0  0  0  0
    6.8830  -13.0505   24.9446 C   0  0  0  0  0  0  0  0  0  0  0  0
    7.2889  -11.9735   25.7043 C   0  0  0  0  0  0  0  0  0  0  0  0
    8.1317  -12.2062   26.7751 C   0  0  0  0  0  0  0  0  0  0  0  0
    8.5604  -13.4544   27.0879 C   0  0  0  0  0  0  0  0  0  0  0  0
   10.3666  -16.5762   28.2589 C   0  0  0  0  0  0  0  0  0  0  0  0
   11.1414  -16.0751   29.0918 O   0  0  0  0  0  0  0  0  0  0  0  0
    9.7575  -17.8046   28.6005 O   0  0  0  0  0  0  0  0  0  0  0  0
  2  1  1  0
  3  2  1  0
  4  5  1  0
  4  3  1  0
  5  6  1  1
  7  5  1  0
  7  8  2  0
  9  7  1  0
 10  9  1  0
 10 11  1  6
 12 11  1  0
 12 13  1  0
 13 14  1  0
 14 15  1  0
 16 18  1  0
 16 10  1  0
 17 16  2  0
 19 18  1  0
 19 27  1  0
 19 20  1  6
 21 20  1  0
 21 22  2  0
 23 22  1  0
 24 23  2  0
 25 26  2  0
 25 24  1  0
 26 21  1  0
 27 29  1  0
 28 27  2  0
M  END
$$$$
