MKF.pdb
     RDKit          3D

 29 29  0  0  1  0  0  0  0  0999 V2000
    8.9824  -12.2780   19.2387 C   0  0  0  0  0  0  0  0  0  0  0  0
    7.6169  -12.6084   20.3906 S   0  0  0  0  0  0  0  0  0  0  0  0
    7.1593  -14.3662   20.3645 C   0  0  0  0  0  0  0  0  0  0  0  0
    8.0309  -15.0589   19.3432 C   0  0  0  0  0  0  0  0  0  0  0  0
    7.6680  -16.5351   19.3245 C   0  0  2  0  0  0  0  0  0  0  0  0
    6.2570  -16.7022   19.1364 N   0  0  0  0  0  0  0  0  0  0  0  0
    8.0750  -17.1779   20.5896 C   0  0  0  0  0  0  0  0  0  0  0  0
    7.3043  -17.2719   21.5879 O   0  0  0  0  0  0  0  0  0  0  0  0
    9.3764  -17.7291   20.7412 N   0  0  0  0  0  0  0  0  0  0  0  0
    9.8253  -18.3971   21.9466 C   0  0  1  0  0  0  0  0  0  0  0  0
   11.1828  -19.0212   21.5762 C   0  0  0  0  0  0  0  0  0  0  0  0
   11.7230  -19.8135   22.7365 C   0  0  0  0  0  0  0  0  0  0  0  0
   13.0594  -20.3972   22.3671 C   0  0  0  0  0  0  0  0  0  0  0  0
   13.3024  -21.6819   23.0739 C   0  0  0  0  0  0  0  0  0  0  0  0
   14.6289  -22.2194   22.8437 N   0  0  0  0  0  0  0  0  0  0  0  0
   10.1261  -17.3971   22.9878 C   0  0  0  0  0  0  0  0  0  0  0  0
   10.6526  -16.3142   22.6635 O   0  0  0  0  0  0  0  0  0  0  0  0
    9.8308  -17.6384   24.3479 N   0  0  0  0  0  0  0  0  0  0  0  0
   10.1167  -16.5896   25.3165 C   0  0  1  0  0  0  0  0  0  0  0  0
    9.0045  -16.4283   26.2991 C   0  0  0  0  0  0  0  0  0  0  0  0
    9.3421  -15.3946   27.3014 C   0  0  0  0  0  0  0  0  0  0  0  0
    9.9944  -15.7290   28.4866 C   0  0  0  0  0  0  0  0  0  0  0  0
   10.3370  -14.7812   29.4157 C   0  0  0  0  0  0  0  0  0  0  0  0
   10.0354  -13.4550   29.1873 C   0  0  0  0  0  0  0  0  0  0  0  0
    9.3885  -13.1220   28.0119 C   0  0  0  0  0  0  0  0  0  0  0  0
    9.0499  -14.0606   27.0931 C   0  0  0  0  0  0  0  0  0  0  0  0
   11.3948  -16.8939   25.9817 C   0  0  0  0  0  0  0  0  0  0  0  0
   12.3534  -16.1028   26.0028 O   0  0  0  0  0  0  0  0  0  0  0  0
   11.5674  -18.1353   26.6343 O   0  0  0  0  0  0  0  0  0  0  0  0
  2  1  1  0
  3  2  1  0
  4  5  1  0
  4  3  1  0
  5  6  1  1
  7  5  1  0
  7  8  2  0
  9  7  1  0
 10  9  1  0
 10 11  1  6
 12 11  1  0
 12 13  1  0
 13 14  1  0
 14 15  1  0
 16 18  1  0
 16 10  1  0
 17 16  2  0
 19 18  1  0
 19 27  1  0
 19 20  1  1
 21 20  1  0
 21 22  2  0
 23 22  1  0
 24 23  2  0
 25 26  2  0
 25 24  1  0
 26 21  1  0
 27 29  1  0
 28 27  2  0
M  END
$$$$
