MKF.pdb
     RDKit          3D

 29 29  0  0  1  0  0  0  0  0999 V2000
    7.8167  -11.3595   19.5582 C   0  0  0  0  0  0  0  0  0  0  0  0
    8.2440  -12.0864   21.1675 S   0  0  0  0  0  0  0  0  0  0  0  0
    8.4128  -13.8905   21.0382 C   0  0  0  0  0  0  0  0  0  0  0  0
    7.1529  -14.4316   20.4039 C   0  0  0  0  0  0  0  0  0  0  0  0
    7.2856  -15.9414   20.2847 C   0  0  2  0  0  0  0  0  0  0  0  0
    6.1372  -16.4955   19.6301 N   0  0  0  0  0  0  0  0  0  0  0  0
    7.4302  -16.5493   21.6222 C   0  0  0  0  0  0  0  0  0  0  0  0
    6.4847  -16.5897   22.4610 O   0  0  0  0  0  0  0  0  0  0  0  0
    8.6635  -17.1260   22.0309 N   0  0  0  0  0  0  0  0  0  0  0  0
    8.8235  -17.8838   23.2561 C   0  0  1  0  0  0  0  0  0  0  0  0
    9.9784  -18.8615   22.9737 C   0  0  0  0  0  0  0  0  0  0  0  0
   10.2071  -19.7518   24.1658 C   0  0  0  0  0  0  0  0  0  0  0  0
   10.4303  -21.1652   23.7015 C   0  0  0  0  0  0  0  0  0  0  0  0
   10.5261  -22.1032   24.8503 C   0  0  0  0  0  0  0  0  0  0  0  0
   10.5698  -23.4957   24.4498 N   0  0  0  0  0  0  0  0  0  0  0  0
    9.3140  -16.9989   24.3288 C   0  0  0  0  0  0  0  0  0  0  0  0
   10.1456  -16.1102   24.0576 O   0  0  0  0  0  0  0  0  0  0  0  0
    8.8623  -17.1352   25.6602 N   0  0  0  0  0  0  0  0  0  0  0  0
    9.3660  -16.2067   26.6621 C   0  0  1  0  0  0  0  0  0  0  0  0
    8.2571  -15.5832   27.4432 C   0  0  0  0  0  0  0  0  0  0  0  0
    7.7651  -14.3643   26.7654 C   0  0  0  0  0  0  0  0  0  0  0  0
    6.5800  -14.3785   26.0323 C   0  0  0  0  0  0  0  0  0  0  0  0
    6.0962  -13.2527   25.4181 C   0  0  0  0  0  0  0  0  0  0  0  0
    6.7886  -12.0643   25.5181 C   0  0  0  0  0  0  0  0  0  0  0  0
    7.9642  -12.0488   26.2452 C   0  0  0  0  0  0  0  0  0  0  0  0
    8.4422  -13.1633   26.8528 C   0  0  0  0  0  0  0  0  0  0  0  0
   10.3161  -16.9186   27.5334 C   0  0  0  0  0  0  0  0  0  0  0  0
   10.9458  -16.3606   28.4485 O   0  0  0  0  0  0  0  0  0  0  0  0
   10.5419  -18.3005   27.3432 O   0  0  0  0  0  0  0  0  0  0  0  0
  2  1  1  0
  3  2  1  0
  4  5  1  0
  4  3  1  0
  5  6  1  1
  7  5  1  0
  7  8  2  0
  9  7  1  0
 10  9  1  0
 10 11  1  6
 12 11  1  0
 12 13  1  0
 13 14  1  0
 14 15  1  0
 16 18  1  0
 16 10  1  0
 17 16  2  0
 19 18  1  0
 19 27  1  0
 19 20  1  1
 21 20  1  0
 21 22  2  0
 23 22  1  0
 24 23  2  0
 25 26  2  0
 25 24  1  0
 26 21  1  0
 27 29  1  0
 28 27  2  0
M  END
$$$$
