MKF.pdb
     RDKit          3D

 29 29  0  0  1  0  0  0  0  0999 V2000
    8.5297  -11.9123   20.5836 C   0  0  0  0  0  0  0  0  0  0  0  0
    7.5400  -12.5427   19.1966 S   0  0  0  0  0  0  0  0  0  0  0  0
    7.4310  -14.3552   19.2507 C   0  0  0  0  0  0  0  0  0  0  0  0
    6.9254  -14.7504   20.6184 C   0  0  0  0  0  0  0  0  0  0  0  0
    6.9379  -16.2676   20.7150 C   0  0  2  0  0  0  0  0  0  0  0  0
    5.9359  -16.8327   19.8601 N   0  0  0  0  0  0  0  0  0  0  0  0
    6.6937  -16.6935   22.1073 C   0  0  0  0  0  0  0  0  0  0  0  0
    5.5655  -16.5841   22.6681 O   0  0  0  0  0  0  0  0  0  0  0  0
    7.7379  -17.2557   22.8910 N   0  0  0  0  0  0  0  0  0  0  0  0
    7.5666  -17.6719   24.2688 C   0  0  1  0  0  0  0  0  0  0  0  0
    8.1234  -19.1059   24.3255 C   0  0  0  0  0  0  0  0  0  0  0  0
    8.0118  -19.6504   25.7245 C   0  0  0  0  0  0  0  0  0  0  0  0
    8.4962  -21.0744   25.7491 C   0  0  0  0  0  0  0  0  0  0  0  0
    8.3202  -21.6824   27.0938 C   0  0  0  0  0  0  0  0  0  0  0  0
    6.9319  -21.7844   27.4983 N   0  0  0  0  0  0  0  0  0  0  0  0
    8.4477  -16.8757   25.1430 C   0  0  0  0  0  0  0  0  0  0  0  0
    9.5912  -16.5731   24.7484 O   0  0  0  0  0  0  0  0  0  0  0  0
    8.0250  -16.4469   26.4207 N   0  0  0  0  0  0  0  0  0  0  0  0
    8.9863  -15.7676   27.2777 C   0  0  1  0  0  0  0  0  0  0  0  0
    8.3627  -14.6249   28.0084 C   0  0  0  0  0  0  0  0  0  0  0  0
    7.9834  -13.5500   27.0662 C   0  0  0  0  0  0  0  0  0  0  0  0
    8.9450  -12.7052   26.5152 C   0  0  0  0  0  0  0  0  0  0  0  0
    8.6149  -11.7196   25.6216 C   0  0  0  0  0  0  0  0  0  0  0  0
    7.2994  -11.5452   25.2463 C   0  0  0  0  0  0  0  0  0  0  0  0
    6.3446  -12.3827   25.7921 C   0  0  0  0  0  0  0  0  0  0  0  0
    6.6721  -13.3579   26.6761 C   0  0  0  0  0  0  0  0  0  0  0  0
    9.5764  -16.7512   28.2013 C   0  0  0  0  0  0  0  0  0  0  0  0
    9.2233  -17.9424   28.2393 O   0  0  0  0  0  0  0  0  0  0  0  0
   10.5931  -16.3499   29.0968 O   0  0  0  0  0  0  0  0  0  0  0  0
  2  1  1  0
  3  2  1  0
  4  5  1  0
  4  3  1  0
  5  6  1  6
  7  5  1  0
  7  8  2  0
  9  7  1  0
 10  9  1  0
 10 11  1  6
 12 11  1  0
 12 13  1  0
 13 14  1  0
 14 15  1  0
 16 18  1  0
 16 10  1  0
 17 16  2  0
 19 18  1  0
 19 27  1  0
 19 20  1  1
 21 20  1  0
 21 22  2  0
 23 22  1  0
 24 23  2  0
 25 26  2  0
 25 24  1  0
 26 21  1  0
 27 29  1  0
 28 27  2  0
M  END
$$$$
