MKF.pdb
     RDKit          3D

 29 29  0  0  1  0  0  0  0  0999 V2000
    8.1327  -12.2798   19.2115 C   0  0  0  0  0  0  0  0  0  0  0  0
    8.2958  -12.7681   17.4691 S   0  0  0  0  0  0  0  0  0  0  0  0
    8.4216  -14.5735   17.3122 C   0  0  0  0  0  0  0  0  0  0  0  0
    8.1903  -15.1766   18.6780 C   0  0  0  0  0  0  0  0  0  0  0  0
    8.4643  -16.6698   18.5961 C   0  0  2  0  0  0  0  0  0  0  0  0
    7.5122  -17.3077   17.7354 N   0  0  0  0  0  0  0  0  0  0  0  0
    8.3963  -17.2767   19.9401 C   0  0  0  0  0  0  0  0  0  0  0  0
    7.3140  -17.6823   20.4535 O   0  0  0  0  0  0  0  0  0  0  0  0
    9.5684  -17.4335   20.7290 N   0  0  0  0  0  0  0  0  0  0  0  0
    9.5494  -17.8841   22.1065 C   0  0  1  0  0  0  0  0  0  0  0  0
   10.9294  -18.5261   22.3363 C   0  0  0  0  0  0  0  0  0  0  0  0
   11.0142  -19.0878   23.7303 C   0  0  0  0  0  0  0  0  0  0  0  0
   12.2918  -19.8677   23.8805 C   0  0  0  0  0  0  0  0  0  0  0  0
   12.4377  -20.4067   25.2579 C   0  0  0  0  0  0  0  0  0  0  0  0
   12.2818  -21.8462   25.3284 N   0  0  0  0  0  0  0  0  0  0  0  0
    9.5043  -16.7202   23.0108 C   0  0  0  0  0  0  0  0  0  0  0  0
   10.2347  -15.7362   22.7799 O   0  0  0  0  0  0  0  0  0  0  0  0
    8.6505  -16.6943   24.1357 N   0  0  0  0  0  0  0  0  0  0  0  0
    8.5239  -15.4506   24.8820 C   0  0  1  0  0  0  0  0  0  0  0  0
    7.0940  -15.0886   25.1121 C   0  0  0  0  0  0  0  0  0  0  0  0
    6.9930  -13.8873   25.9687 C   0  0  0  0  0  0  0  0  0  0  0  0
    6.8285  -12.6201   25.4126 C   0  0  0  0  0  0  0  0  0  0  0  0
    6.7085  -11.4987   26.1916 C   0  0  0  0  0  0  0  0  0  0  0  0
    6.7496  -11.6092   27.5656 C   0  0  0  0  0  0  0  0  0  0  0  0
    6.9126  -12.8657   28.1184 C   0  0  0  0  0  0  0  0  0  0  0  0
    7.0311  -13.9749   27.3469 C   0  0  0  0  0  0  0  0  0  0  0  0
    9.2663  -15.5789   26.1473 C   0  0  0  0  0  0  0  0  0  0  0  0
    9.9281  -14.6504   26.6423 O   0  0  0  0  0  0  0  0  0  0  0  0
    9.2428  -16.8030   26.8529 O   0  0  0  0  0  0  0  0  0  0  0  0
  2  1  1  0
  3  2  1  0
  4  5  1  0
  4  3  1  0
  5  6  1  6
  7  5  1  0
  7  8  2  0
  9  7  1  0
 10  9  1  0
 10 11  1  1
 12 11  1  0
 12 13  1  0
 13 14  1  0
 14 15  1  0
 16 18  1  0
 16 10  1  0
 17 16  2  0
 19 18  1  0
 19 27  1  0
 19 20  1  1
 21 20  1  0
 21 22  2  0
 23 22  1  0
 24 23  2  0
 25 26  2  0
 25 24  1  0
 26 21  1  0
 27 29  1  0
 28 27  2  0
M  END
$$$$
