IEL.pdb
     RDKit          3D

 26 25  0  0  1  0  0  0  0  0999 V2000
    7.2296  -11.6872   19.2009 C   0  0  0  0  0  0  0  0  0  0  0  0
    7.5641  -13.1301   18.9959 C   0  0  0  0  0  0  0  0  0  0  0  0
    7.9477  -13.8339   20.2612 C   0  0  2  0  0  0  0  0  0  0  0  0
    9.0456  -13.0675   20.9708 C   0  0  0  0  0  0  0  0  0  0  0  0
    8.2932  -15.2772   20.0785 C   0  0  2  0  0  0  0  0  0  0  0  0
    7.0930  -15.8784   19.4431 N   0  0  0  0  0  0  0  0  0  0  0  0
    8.4721  -16.0179   21.3666 C   0  0  0  0  0  0  0  0  0  0  0  0
    7.4441  -16.1992   22.0530 O   0  0  0  0  0  0  0  0  0  0  0  0
    9.6948  -16.5008   21.8193 N   0  0  0  0  0  0  0  0  0  0  0  0
   10.0756  -17.0699   23.0571 C   0  0  1  0  0  0  0  0  0  0  0  0
   11.2693  -17.9560   23.0616 C   0  0  0  0  0  0  0  0  0  0  0  0
   11.6442  -18.6292   24.3233 C   0  0  0  0  0  0  0  0  0  0  0  0
   12.8823  -19.4364   24.2780 C   0  0  0  0  0  0  0  0  0  0  0  0
   13.8777  -19.2466   25.0152 O   0  0  0  0  0  0  0  0  0  0  0  0
   10.0045  -16.2841   24.2849 C   0  0  0  0  0  0  0  0  0  0  0  0
   10.9323  -15.3995   24.4457 O   0  0  0  0  0  0  0  0  0  0  0  0
   12.9871  -20.4945   23.3612 O   0  0  0  0  0  0  0  0  0  0  0  0
    6.2528  -12.9985   26.2177 C   0  0  0  0  0  0  0  0  0  0  0  0
    7.6444  -13.5363   25.8378 C   0  0  1  0  0  0  0  0  0  0  0  0
    8.5862  -12.3687   26.0241 C   0  0  0  0  0  0  0  0  0  0  0  0
    7.9120  -14.6674   26.7611 C   0  0  0  0  0  0  0  0  0  0  0  0
    9.1556  -15.4561   26.5056 C   0  0  2  0  0  0  0  0  0  0  0  0
    9.0957  -16.3267   25.3464 N   0  0  0  0  0  0  0  0  0  0  0  0
    9.3806  -16.3119   27.6857 C   0  0  0  0  0  0  0  0  0  0  0  0
    9.2760  -17.5464   27.6035 O   0  0  0  0  0  0  0  0  0  0  0  0
    9.7114  -15.7337   28.8945 O   0  0  0  0  0  0  0  0  0  0  0  0
  1  2  1  0
  2  3  1  0
  3  5  1  0
  3  4  1  6
  5  6  1  1
  7  5  1  0
  7  8  2  0
  9 10  1  0
  9  7  1  0
 11 12  1  0
 10 11  1  6
 12 13  1  0
 13 14  2  0
 13 17  1  0
 15 16  2  0
 15 10  1  0
 19 18  1  1
 19 20  1  0
 19 21  1  0
 22 21  1  1
 22 23  1  0
 22 24  1  0
 23 15  1  0
 24 26  1  0
 25 24  2  0
M  END
$$$$
