IEL.pdb
     RDKit          3D

 26 25  0  0  1  0  0  0  0  0999 V2000
    7.2044  -12.4960   25.3371 C   0  0  0  0  0  0  0  0  0  0  0  0
    7.0789  -13.9027   24.8456 C   0  0  0  0  0  0  0  0  0  0  0  0
    7.4934  -14.0688   23.4158 C   0  0  2  0  0  0  0  0  0  0  0  0
    6.6135  -13.2233   22.5173 C   0  0  0  0  0  0  0  0  0  0  0  0
    7.5650  -15.4912   22.9603 C   0  0  2  0  0  0  0  0  0  0  0  0
    6.2156  -16.0472   23.2352 N   0  0  0  0  0  0  0  0  0  0  0  0
    8.5097  -16.3301   23.7627 C   0  0  0  0  0  0  0  0  0  0  0  0
    8.0696  -16.7943   24.8358 O   0  0  0  0  0  0  0  0  0  0  0  0
    9.8162  -16.6093   23.3776 N   0  0  0  0  0  0  0  0  0  0  0  0
   10.8651  -17.2826   24.0465 C   0  0  1  0  0  0  0  0  0  0  0  0
   12.0653  -17.6407   23.2458 C   0  0  0  0  0  0  0  0  0  0  0  0
   11.8694  -18.2126   21.8967 C   0  0  0  0  0  0  0  0  0  0  0  0
   12.8866  -17.8449   20.8885 C   0  0  0  0  0  0  0  0  0  0  0  0
   14.1062  -18.1169   20.9825 O   0  0  0  0  0  0  0  0  0  0  0  0
   11.2386  -16.9033   25.4054 C   0  0  0  0  0  0  0  0  0  0  0  0
   12.2378  -16.0912   25.5124 O   0  0  0  0  0  0  0  0  0  0  0  0
   12.4986  -17.1439   19.7356 O   0  0  0  0  0  0  0  0  0  0  0  0
    9.0262  -13.9687   28.6780 C   0  0  0  0  0  0  0  0  0  0  0  0
   10.2033  -14.6214   27.9307 C   0  0  1  0  0  0  0  0  0  0  0  0
   11.3152  -13.5980   27.9695 C   0  0  0  0  0  0  0  0  0  0  0  0
   10.5183  -15.8679   28.6725 C   0  0  0  0  0  0  0  0  0  0  0  0
   11.2747  -16.9165   27.9226 C   0  0  2  0  0  0  0  0  0  0  0  0
   10.7012  -17.2792   26.6400 N   0  0  0  0  0  0  0  0  0  0  0  0
   11.2830  -18.1315   28.7587 C   0  0  0  0  0  0  0  0  0  0  0  0
   10.7066  -19.1648   28.3822 O   0  0  0  0  0  0  0  0  0  0  0  0
   11.9389  -18.1195   29.9730 O   0  0  0  0  0  0  0  0  0  0  0  0
  1  2  1  0
  2  3  1  0
  3  5  1  0
  3  4  1  6
  5  6  1  1
  7  5  1  0
  7  8  2  0
  9 10  1  0
  9  7  1  0
 11 12  1  0
 10 11  1  6
 12 13  1  0
 13 14  2  0
 13 17  1  0
 15 16  2  0
 15 10  1  0
 19 18  1  1
 19 20  1  0
 19 21  1  0
 22 21  1  1
 22 23  1  0
 22 24  1  0
 23 15  1  0
 24 26  1  0
 25 24  2  0
M  END
$$$$
