IEL.pdb
     RDKit          3D

 26 25  0  0  1  0  0  0  0  0999 V2000
    7.1945  -11.7529   19.1341 C   0  0  0  0  0  0  0  0  0  0  0  0
    7.4557  -13.2188   18.9965 C   0  0  0  0  0  0  0  0  0  0  0  0
    7.8534  -13.8721   20.2845 C   0  0  2  0  0  0  0  0  0  0  0  0
    9.0580  -13.1676   20.8751 C   0  0  0  0  0  0  0  0  0  0  0  0
    8.0560  -15.3502   20.1843 C   0  0  2  0  0  0  0  0  0  0  0  0
    6.7650  -15.8775   19.6735 N   0  0  0  0  0  0  0  0  0  0  0  0
    8.2601  -16.0177   21.5081 C   0  0  0  0  0  0  0  0  0  0  0  0
    7.2849  -16.0178   22.2890 O   0  0  0  0  0  0  0  0  0  0  0  0
    9.4510  -16.6219   21.8957 N   0  0  0  0  0  0  0  0  0  0  0  0
    9.8603  -17.1752   23.1315 C   0  0  1  0  0  0  0  0  0  0  0  0
   11.0160  -18.1102   23.1104 C   0  0  0  0  0  0  0  0  0  0  0  0
   12.3570  -17.5686   22.8036 C   0  0  0  0  0  0  0  0  0  0  0  0
   13.4548  -18.5582   22.7574 C   0  0  0  0  0  0  0  0  0  0  0  0
   14.2712  -18.7528   23.6879 O   0  0  0  0  0  0  0  0  0  0  0  0
    9.8735  -16.3567   24.3397 C   0  0  0  0  0  0  0  0  0  0  0  0
   10.7766  -15.4341   24.3890 O   0  0  0  0  0  0  0  0  0  0  0  0
   13.6258  -19.3511   21.6115 O   0  0  0  0  0  0  0  0  0  0  0  0
    6.2531  -13.1871   26.3763 C   0  0  0  0  0  0  0  0  0  0  0  0
    7.6425  -13.6906   25.9450 C   0  0  1  0  0  0  0  0  0  0  0  0
    8.5215  -12.4609   25.9224 C   0  0  0  0  0  0  0  0  0  0  0  0
    8.0491  -14.6916   26.9629 C   0  0  0  0  0  0  0  0  0  0  0  0
    9.2400  -15.5320   26.6324 C   0  0  2  0  0  0  0  0  0  0  0  0
    9.0704  -16.4014   25.4832 N   0  0  0  0  0  0  0  0  0  0  0  0
    9.5041  -16.3943   27.7995 C   0  0  0  0  0  0  0  0  0  0  0  0
    9.8016  -15.9001   28.8991 O   0  0  0  0  0  0  0  0  0  0  0  0
    9.4192  -17.7655   27.6678 O   0  0  0  0  0  0  0  0  0  0  0  0
  1  2  1  0
  2  3  1  0
  3  5  1  0
  3  4  1  6
  5  6  1  1
  7  5  1  0
  7  8  2  0
  9 10  1  0
  9  7  1  0
 11 12  1  0
 10 11  1  6
 12 13  1  0
 13 14  2  0
 13 17  1  0
 15 16  2  0
 15 10  1  0
 19 18  1  1
 19 20  1  0
 19 21  1  0
 22 21  1  1
 22 23  1  0
 22 24  1  0
 23 15  1  0
 24 26  1  0
 25 24  2  0
M  END
$$$$
