IEL.pdb
     RDKit          3D

 26 25  0  0  1  0  0  0  0  0999 V2000
    6.8742  -11.6751   19.2300 C   0  0  0  0  0  0  0  0  0  0  0  0
    7.1081  -13.1472   19.1104 C   0  0  0  0  0  0  0  0  0  0  0  0
    7.6557  -13.7625   20.3615 C   0  0  2  0  0  0  0  0  0  0  0  0
    8.9411  -13.0678   20.7636 C   0  0  0  0  0  0  0  0  0  0  0  0
    7.8129  -15.2480   20.2952 C   0  0  2  0  0  0  0  0  0  0  0  0
    6.4653  -15.7575   19.9350 N   0  0  0  0  0  0  0  0  0  0  0  0
    8.1337  -15.8758   21.6153 C   0  0  0  0  0  0  0  0  0  0  0  0
    7.2414  -15.8253   22.4884 O   0  0  0  0  0  0  0  0  0  0  0  0
    9.3439  -16.4962   21.9046 N   0  0  0  0  0  0  0  0  0  0  0  0
    9.8596  -17.0244   23.1112 C   0  0  1  0  0  0  0  0  0  0  0  0
   11.1114  -17.8217   23.0265 C   0  0  0  0  0  0  0  0  0  0  0  0
   11.6641  -18.4028   24.2685 C   0  0  0  0  0  0  0  0  0  0  0  0
   12.8859  -19.2200   24.1078 C   0  0  0  0  0  0  0  0  0  0  0  0
   12.8989  -20.4724   24.0675 O   0  0  0  0  0  0  0  0  0  0  0  0
    9.8265  -16.2341   24.3378 C   0  0  0  0  0  0  0  0  0  0  0  0
   10.6384  -15.2302   24.3868 O   0  0  0  0  0  0  0  0  0  0  0  0
   14.1332  -18.5865   23.9892 O   0  0  0  0  0  0  0  0  0  0  0  0
    6.1720  -13.2059   26.7323 C   0  0  0  0  0  0  0  0  0  0  0  0
    7.5722  -13.6306   26.2536 C   0  0  1  0  0  0  0  0  0  0  0  0
    8.4579  -12.4309   26.5015 C   0  0  0  0  0  0  0  0  0  0  0  0
    7.9399  -14.8173   27.0660 C   0  0  0  0  0  0  0  0  0  0  0  0
    9.1906  -15.5339   26.6708 C   0  0  2  0  0  0  0  0  0  0  0  0
    9.0619  -16.3799   25.4990 N   0  0  0  0  0  0  0  0  0  0  0  0
    9.5717  -16.4032   27.7997 C   0  0  0  0  0  0  0  0  0  0  0  0
    9.9961  -15.9164   28.8602 O   0  0  0  0  0  0  0  0  0  0  0  0
    9.4550  -17.7728   27.6757 O   0  0  0  0  0  0  0  0  0  0  0  0
  1  2  1  0
  2  3  1  0
  3  5  1  0
  3  4  1  6
  5  6  1  1
  7  5  1  0
  7  8  2  0
  9 10  1  0
  9  7  1  0
 11 12  1  0
 10 11  1  6
 12 13  1  0
 13 14  2  0
 13 17  1  0
 15 16  2  0
 15 10  1  0
 19 18  1  1
 19 20  1  0
 19 21  1  0
 22 21  1  1
 22 23  1  0
 22 24  1  0
 23 15  1  0
 24 26  1  0
 25 24  2  0
M  END
$$$$
