IEL.pdb
     RDKit          3D

 26 25  0  0  1  0  0  0  0  0999 V2000
    7.7529  -11.7798   20.2478 C   0  0  0  0  0  0  0  0  0  0  0  0
    7.4650  -13.2232   20.5120 C   0  0  0  0  0  0  0  0  0  0  0  0
    8.0603  -14.1418   19.4896 C   0  0  2  0  0  0  0  0  0  0  0  0
    7.5950  -13.7479   18.1023 C   0  0  0  0  0  0  0  0  0  0  0  0
    7.8392  -15.5941   19.7687 C   0  0  2  0  0  0  0  0  0  0  0  0
    6.3662  -15.7733   19.7084 N   0  0  0  0  0  0  0  0  0  0  0  0
    8.2315  -16.0042   21.1535 C   0  0  0  0  0  0  0  0  0  0  0  0
    7.3902  -15.8012   22.0546 O   0  0  0  0  0  0  0  0  0  0  0  0
    9.4534  -16.5858   21.4725 N   0  0  0  0  0  0  0  0  0  0  0  0
   10.0401  -16.9061   22.7191 C   0  0  1  0  0  0  0  0  0  0  0  0
   11.4005  -17.5051   22.6986 C   0  0  0  0  0  0  0  0  0  0  0  0
   11.9645  -18.0202   23.9644 C   0  0  0  0  0  0  0  0  0  0  0  0
   13.3256  -18.5912   23.8765 C   0  0  0  0  0  0  0  0  0  0  0  0
   13.5797  -19.7592   23.5004 O   0  0  0  0  0  0  0  0  0  0  0  0
    9.8805  -16.0130   23.8623 C   0  0  0  0  0  0  0  0  0  0  0  0
   10.3523  -14.8188   23.7183 O   0  0  0  0  0  0  0  0  0  0  0  0
   14.4325  -17.8028   24.2295 O   0  0  0  0  0  0  0  0  0  0  0  0
    8.4245  -12.2953   26.8450 C   0  0  0  0  0  0  0  0  0  0  0  0
    7.3697  -13.4166   26.8383 C   0  0  1  0  0  0  0  0  0  0  0  0
    6.0595  -12.7281   26.5310 C   0  0  0  0  0  0  0  0  0  0  0  0
    7.7972  -14.3743   25.7878 C   0  0  0  0  0  0  0  0  0  0  0  0
    9.0246  -15.1766   26.0772 C   0  0  2  0  0  0  0  0  0  0  0  0
    9.3035  -16.2284   25.1173 N   0  0  0  0  0  0  0  0  0  0  0  0
    8.8263  -15.8212   27.3889 C   0  0  0  0  0  0  0  0  0  0  0  0
    8.7447  -15.1407   28.4244 O   0  0  0  0  0  0  0  0  0  0  0  0
    8.7302  -17.1958   27.4660 O   0  0  0  0  0  0  0  0  0  0  0  0
  1  2  1  0
  2  3  1  0
  3  5  1  0
  3  4  1  6
  5  6  1  1
  7  5  1  0
  7  8  2  0
  9 10  1  0
  9  7  1  0
 11 12  1  0
 10 11  1  6
 12 13  1  0
 13 14  2  0
 13 17  1  0
 15 16  2  0
 15 10  1  0
 19 18  1  6
 19 20  1  0
 19 21  1  0
 22 21  1  6
 22 23  1  0
 22 24  1  0
 23 15  1  0
 24 26  1  0
 25 24  2  0
M  END
$$$$
