IEL.pdb
     RDKit          3D

 26 25  0  0  1  0  0  0  0  0999 V2000
    6.0130  -11.1628   26.7663 C   0  0  0  0  0  0  0  0  0  0  0  0
    5.6514  -12.4025   26.0125 C   0  0  0  0  0  0  0  0  0  0  0  0
    6.8337  -13.2622   25.6860 C   0  0  2  0  0  0  0  0  0  0  0  0
    7.8560  -12.4650   24.9013 C   0  0  0  0  0  0  0  0  0  0  0  0
    6.4860  -14.5520   25.0141 C   0  0  2  0  0  0  0  0  0  0  0  0
    5.3898  -15.1256   25.8356 N   0  0  0  0  0  0  0  0  0  0  0  0
    7.5860  -15.5659   25.0584 C   0  0  0  0  0  0  0  0  0  0  0  0
    7.7157  -16.2017   26.1260 O   0  0  0  0  0  0  0  0  0  0  0  0
    8.4436  -15.8256   23.9952 N   0  0  0  0  0  0  0  0  0  0  0  0
    9.6052  -16.6276   23.9047 C   0  0  1  0  0  0  0  0  0  0  0  0
   10.2803  -16.7030   22.5823 C   0  0  0  0  0  0  0  0  0  0  0  0
   11.4912  -17.5414   22.4544 C   0  0  0  0  0  0  0  0  0  0  0  0
   12.1098  -17.5769   21.1118 C   0  0  0  0  0  0  0  0  0  0  0  0
   12.7912  -16.6462   20.6222 O   0  0  0  0  0  0  0  0  0  0  0  0
   10.5809  -16.6406   24.9900 C   0  0  0  0  0  0  0  0  0  0  0  0
   11.5984  -15.8575   24.8463 O   0  0  0  0  0  0  0  0  0  0  0  0
   11.9448  -18.7119   20.3021 O   0  0  0  0  0  0  0  0  0  0  0  0
    9.4382  -15.0697   29.3614 C   0  0  0  0  0  0  0  0  0  0  0  0
   10.1259  -15.3268   28.0083 C   0  0  1  0  0  0  0  0  0  0  0  0
   10.5600  -13.9644   27.5178 C   0  0  0  0  0  0  0  0  0  0  0  0
   11.2584  -16.2434   28.2926 C   0  0  0  0  0  0  0  0  0  0  0  0
   11.6231  -17.2076   27.2104 C   0  0  2  0  0  0  0  0  0  0  0  0
   10.6154  -17.3740   26.1797 N   0  0  0  0  0  0  0  0  0  0  0  0
   11.8217  -18.5236   27.8461 C   0  0  0  0  0  0  0  0  0  0  0  0
   12.7043  -18.6871   28.7040 O   0  0  0  0  0  0  0  0  0  0  0  0
   11.0173  -19.5848   27.4834 O   0  0  0  0  0  0  0  0  0  0  0  0
  1  2  1  0
  2  3  1  0
  3  5  1  0
  3  4  1  6
  5  6  1  1
  7  5  1  0
  7  8  2  0
  9 10  1  0
  9  7  1  0
 11 12  1  0
 10 11  1  6
 12 13  1  0
 13 14  2  0
 13 17  1  0
 15 16  2  0
 15 10  1  0
 19 18  1  1
 19 20  1  0
 19 21  1  0
 22 21  1  1
 22 23  1  0
 22 24  1  0
 23 15  1  0
 24 26  1  0
 25 24  2  0
M  END
$$$$
