IEL.pdb
     RDKit          3D

 26 25  0  0  1  0  0  0  0  0999 V2000
    7.1099  -11.8280   19.2207 C   0  0  0  0  0  0  0  0  0  0  0  0
    7.4490  -13.2819   19.1354 C   0  0  0  0  0  0  0  0  0  0  0  0
    7.7890  -13.8887   20.4620 C   0  0  2  0  0  0  0  0  0  0  0  0
    8.8789  -13.0825   21.1391 C   0  0  0  0  0  0  0  0  0  0  0  0
    8.1181  -15.3461   20.4024 C   0  0  2  0  0  0  0  0  0  0  0  0
    6.9193  -15.9826   19.7997 N   0  0  0  0  0  0  0  0  0  0  0  0
    8.2689  -15.9815   21.7490 C   0  0  0  0  0  0  0  0  0  0  0  0
    7.2400  -16.0427   22.4551 O   0  0  0  0  0  0  0  0  0  0  0  0
    9.4670  -16.4935   22.2343 N   0  0  0  0  0  0  0  0  0  0  0  0
    9.8466  -16.9185   23.5290 C   0  0  1  0  0  0  0  0  0  0  0  0
   10.9163  -17.9466   23.6228 C   0  0  0  0  0  0  0  0  0  0  0  0
   11.2929  -18.4539   24.9593 C   0  0  0  0  0  0  0  0  0  0  0  0
   11.6849  -19.8785   25.0193 C   0  0  0  0  0  0  0  0  0  0  0  0
   11.7752  -20.6299   24.0205 O   0  0  0  0  0  0  0  0  0  0  0  0
    9.9502  -15.9568   24.6219 C   0  0  0  0  0  0  0  0  0  0  0  0
   10.8943  -15.0809   24.5180 O   0  0  0  0  0  0  0  0  0  0  0  0
   11.9833  -20.4639   26.2600 O   0  0  0  0  0  0  0  0  0  0  0  0
    6.2974  -12.7017   26.8984 C   0  0  0  0  0  0  0  0  0  0  0  0
    7.5717  -13.2483   26.2294 C   0  0  1  0  0  0  0  0  0  0  0  0
    8.3482  -12.0261   25.7952 C   0  0  0  0  0  0  0  0  0  0  0  0
    8.2646  -14.0539   27.2659 C   0  0  0  0  0  0  0  0  0  0  0  0
    9.4629  -14.8269   26.8182 C   0  0  2  0  0  0  0  0  0  0  0  0
    9.1983  -15.8183   25.7923 N   0  0  0  0  0  0  0  0  0  0  0  0
    9.9859  -15.5437   27.9963 C   0  0  0  0  0  0  0  0  0  0  0  0
    9.9701  -16.7844   28.0428 O   0  0  0  0  0  0  0  0  0  0  0  0
   10.4986  -14.8272   29.0587 O   0  0  0  0  0  0  0  0  0  0  0  0
  1  2  1  0
  2  3  1  0
  3  5  1  0
  3  4  1  6
  5  6  1  1
  7  5  1  0
  7  8  2  0
  9 10  1  0
  9  7  1  0
 11 12  1  0
 10 11  1  6
 12 13  1  0
 13 14  2  0
 13 17  1  0
 15 16  2  0
 15 10  1  0
 19 18  1  1
 19 20  1  0
 19 21  1  0
 22 21  1  1
 22 23  1  0
 22 24  1  0
 23 15  1  0
 24 26  1  0
 25 24  2  0
M  END
$$$$
