GYW.pdb
     RDKit          3D

 31 33  0  0  1  0  0  0  0  0999 V2000
   27.9766  -20.6315  -16.4402 N   0  0  0  0  0  0  0  0  0  0  0  0
   27.3732  -21.6023  -15.5351 C   0  0  0  0  0  0  0  0  0  0  0  0
   26.6387  -20.8995  -14.4467 C   0  0  0  0  0  0  0  0  0  0  0  0
   26.7561  -19.6745  -14.2256 O   0  0  0  0  0  0  0  0  0  0  0  0
   21.3446  -18.3090  -17.1907 O   0  0  0  0  0  0  0  0  0  0  0  0
   21.8606  -18.9870  -16.0887 C   0  0  0  0  0  0  0  0  0  0  0  0
   22.2978  -20.2781  -16.3213 C   0  0  0  0  0  0  0  0  0  0  0  0
   22.8104  -20.9641  -15.2466 C   0  0  0  0  0  0  0  0  0  0  0  0
   22.9076  -20.4376  -13.9735 C   0  0  0  0  0  0  0  0  0  0  0  0
   23.4649  -21.2173  -12.8338 C   0  0  0  0  0  0  0  0  0  0  0  0
   24.9126  -20.9943  -12.6277 C   0  0  2  0  0  0  0  0  0  0  0  0
   25.7616  -21.6189  -13.6078 N   0  0  0  0  0  0  0  0  0  0  0  0
   25.3759  -21.3957  -11.2865 C   0  0  0  0  0  0  0  0  0  0  0  0
   25.5370  -22.5939  -10.9236 O   0  0  0  0  0  0  0  0  0  0  0  0
   22.4561  -19.1422  -13.7957 C   0  0  0  0  0  0  0  0  0  0  0  0
   21.9420  -18.4358  -14.8428 C   0  0  0  0  0  0  0  0  0  0  0  0
   25.6659  -20.4100  -10.3265 N   0  0  0  0  0  0  0  0  0  0  0  0
   26.1130  -20.7829   -8.9569 C   0  0  1  0  0  0  0  0  0  0  0  0
   26.9336  -19.6296   -8.4999 C   0  0  0  0  0  0  0  0  0  0  0  0
   28.1084  -20.0147   -7.7277 C   0  0  0  0  0  0  0  0  0  0  0  0
   29.1052  -20.8391   -8.1858 C   0  0  0  0  0  0  0  0  0  0  0  0
   29.9862  -20.9992   -7.1990 N   0  0  0  0  0  0  0  0  0  0  0  0
   29.5859  -20.2979   -6.1118 C   0  0  0  0  0  0  0  0  0  0  0  0
   30.1687  -20.1330   -4.8525 C   0  0  0  0  0  0  0  0  0  0  0  0
   29.5765  -19.3411   -3.9049 C   0  0  0  0  0  0  0  0  0  0  0  0
   28.3927  -18.7242   -4.2529 C   0  0  0  0  0  0  0  0  0  0  0  0
   27.8166  -18.8748   -5.4664 C   0  0  0  0  0  0  0  0  0  0  0  0
   28.4056  -19.6754   -6.4364 C   0  0  0  0  0  0  0  0  0  0  0  0
   24.9121  -20.9807   -8.1538 C   0  0  0  0  0  0  0  0  0  0  0  0
   24.8410  -21.8189   -7.0453 O   0  0  0  0  0  0  0  0  0  0  0  0
   23.8329  -20.3774   -8.4452 O   0  0  0  0  0  0  0  0  0  0  0  0
  1  2  1  0
  3  4  2  0
  3  2  1  0
  6  5  1  0
  7  6  2  0
  8  7  1  0
  9 15  1  0
  9  8  2  0
 10  9  1  0
 11 10  1  6
 11 12  1  0
 12  3  1  0
 13 17  1  0
 13 11  1  0
 14 13  2  0
 15 16  2  0
 16  6  1  0
 18 17  1  0
 18 29  1  0
 18 19  1  1
 20 28  1  0
 20 19  1  0
 21 20  2  0
 22 21  1  0
 22 23  1  0
 23 28  2  0
 24 23  1  0
 24 25  2  0
 25 26  1  0
 26 27  2  0
 28 27  1  0
 29 30  1  0
 31 29  2  0
M  END
$$$$
