GYW.pdb
     RDKit          3D

 31 33  0  0  1  0  0  0  0  0999 V2000
   28.3420  -22.8364  -17.4664 N   0  0  0  0  0  0  0  0  0  0  0  0
   27.1922  -22.2916  -16.7545 C   0  0  0  0  0  0  0  0  0  0  0  0
   27.6301  -21.6728  -15.4726 C   0  0  0  0  0  0  0  0  0  0  0  0
   28.7824  -21.8111  -15.0074 O   0  0  0  0  0  0  0  0  0  0  0  0
   29.4459  -16.2092  -17.8911 O   0  0  0  0  0  0  0  0  0  0  0  0
   28.7678  -16.8129  -16.8346 C   0  0  0  0  0  0  0  0  0  0  0  0
   29.5436  -17.5492  -15.9580 C   0  0  0  0  0  0  0  0  0  0  0  0
   28.8933  -18.1529  -14.9087 C   0  0  0  0  0  0  0  0  0  0  0  0
   27.5324  -18.0616  -14.6925 C   0  0  0  0  0  0  0  0  0  0  0  0
   26.8651  -18.7366  -13.5449 C   0  0  0  0  0  0  0  0  0  0  0  0
   27.0948  -20.1975  -13.5145 C   0  0  2  0  0  0  0  0  0  0  0  0
   26.7285  -20.8880  -14.7230 N   0  0  0  0  0  0  0  0  0  0  0  0
   26.4333  -20.8648  -12.3780 C   0  0  0  0  0  0  0  0  0  0  0  0
   25.2533  -21.3119  -12.4101 O   0  0  0  0  0  0  0  0  0  0  0  0
   26.8034  -17.3129  -15.5988 C   0  0  0  0  0  0  0  0  0  0  0  0
   27.4201  -16.7019  -16.6505 C   0  0  0  0  0  0  0  0  0  0  0  0
   27.1295  -21.0313  -11.1676 N   0  0  0  0  0  0  0  0  0  0  0  0
   26.4395  -21.5402   -9.9511 C   0  0  1  0  0  0  0  0  0  0  0  0
   27.5098  -21.6393   -8.9230 C   0  0  0  0  0  0  0  0  0  0  0  0
   27.4381  -20.6036   -7.8996 C   0  0  0  0  0  0  0  0  0  0  0  0
   26.6423  -19.4884   -7.9751 C   0  0  0  0  0  0  0  0  0  0  0  0
   26.8689  -18.7526   -6.8875 N   0  0  0  0  0  0  0  0  0  0  0  0
   27.7919  -19.3639   -6.1075 C   0  0  0  0  0  0  0  0  0  0  0  0
   28.3424  -19.0057   -4.8739 C   0  0  0  0  0  0  0  0  0  0  0  0
   29.2612  -19.8120   -4.2565 C   0  0  0  0  0  0  0  0  0  0  0  0
   29.6099  -20.9783   -4.9057 C   0  0  0  0  0  0  0  0  0  0  0  0
   29.0868  -21.3375   -6.0992 C   0  0  0  0  0  0  0  0  0  0  0  0
   28.1548  -20.5291   -6.7370 C   0  0  0  0  0  0  0  0  0  0  0  0
   25.4076  -20.5693   -9.6067 C   0  0  0  0  0  0  0  0  0  0  0  0
   25.4999  -19.2047   -9.8635 O   0  0  0  0  0  0  0  0  0  0  0  0
   24.3388  -20.9392   -9.0288 O   0  0  0  0  0  0  0  0  0  0  0  0
  1  2  1  0
  3  4  2  0
  3  2  1  0
  6  5  1  0
  7  6  2  0
  8  7  1  0
  9 15  1  0
  9  8  2  0
 10  9  1  0
 11 10  1  6
 11 12  1  0
 12  3  1  0
 13 17  1  0
 13 11  1  0
 14 13  2  0
 15 16  2  0
 16  6  1  0
 18 17  1  0
 18 29  1  0
 18 19  1  1
 20 28  1  0
 20 19  1  0
 21 20  2  0
 22 21  1  0
 22 23  1  0
 23 28  2  0
 24 23  1  0
 24 25  2  0
 25 26  1  0
 26 27  2  0
 28 27  1  0
 29 30  1  0
 31 29  2  0
M  END
$$$$
