GYW.pdb
     RDKit          3D

 31 33  0  0  1  0  0  0  0  0999 V2000
   29.3811  -22.5028  -18.7314 N   0  0  0  0  0  0  0  0  0  0  0  0
   28.0934  -22.0409  -18.2272 C   0  0  0  0  0  0  0  0  0  0  0  0
   28.2367  -21.5541  -16.8271 C   0  0  0  0  0  0  0  0  0  0  0  0
   29.2456  -21.7840  -16.1252 O   0  0  0  0  0  0  0  0  0  0  0  0
   30.9754  -16.3314  -18.5305 O   0  0  0  0  0  0  0  0  0  0  0  0
   30.0195  -16.8997  -17.6917 C   0  0  0  0  0  0  0  0  0  0  0  0
   30.4786  -17.3522  -16.4683 C   0  0  0  0  0  0  0  0  0  0  0  0
   29.5509  -17.9164  -15.6260 C   0  0  0  0  0  0  0  0  0  0  0  0
   28.2118  -18.0504  -15.9360 C   0  0  0  0  0  0  0  0  0  0  0  0
   27.2392  -18.6736  -14.9962 C   0  0  0  0  0  0  0  0  0  0  0  0
   27.3330  -20.1492  -14.9544 C   0  0  2  0  0  0  0  0  0  0  0  0
   27.2055  -20.7953  -16.2341 N   0  0  0  0  0  0  0  0  0  0  0  0
   26.3694  -20.7652  -14.0235 C   0  0  0  0  0  0  0  0  0  0  0  0
   25.1926  -21.0945  -14.3398 O   0  0  0  0  0  0  0  0  0  0  0  0
   27.8055  -17.5813  -17.1723 C   0  0  0  0  0  0  0  0  0  0  0  0
   28.7026  -17.0165  -18.0301 C   0  0  0  0  0  0  0  0  0  0  0  0
   26.7500  -21.0165  -12.6933 N   0  0  0  0  0  0  0  0  0  0  0  0
   25.8288  -21.7077  -11.7507 C   0  0  1  0  0  0  0  0  0  0  0  0
   26.6800  -22.0664  -10.5850 C   0  0  0  0  0  0  0  0  0  0  0  0
   26.5611  -21.1413   -9.4647 C   0  0  0  0  0  0  0  0  0  0  0  0
   25.4998  -20.2953   -9.2630 C   0  0  0  0  0  0  0  0  0  0  0  0
   25.7550  -19.5757   -8.1710 N   0  0  0  0  0  0  0  0  0  0  0  0
   26.9560  -19.9349   -7.6584 C   0  0  0  0  0  0  0  0  0  0  0  0
   27.6481  -19.4919   -6.5281 C   0  0  0  0  0  0  0  0  0  0  0  0
   28.8615  -20.0317   -6.1937 C   0  0  0  0  0  0  0  0  0  0  0  0
   29.3575  -21.0204   -7.0180 C   0  0  0  0  0  0  0  0  0  0  0  0
   28.7001  -21.4586   -8.1149 C   0  0  0  0  0  0  0  0  0  0  0  0
   27.4693  -20.9195   -8.4663 C   0  0  0  0  0  0  0  0  0  0  0  0
   24.7719  -20.7613  -11.4139 C   0  0  0  0  0  0  0  0  0  0  0  0
   23.5163  -21.1267  -10.9382 O   0  0  0  0  0  0  0  0  0  0  0  0
   24.9552  -19.5118  -11.5507 O   0  0  0  0  0  0  0  0  0  0  0  0
  1  2  1  0
  3  4  2  0
  3  2  1  0
  6  5  1  0
  7  6  2  0
  8  7  1  0
  9 15  1  0
  9  8  2  0
 10  9  1  0
 11 10  1  6
 11 12  1  0
 12  3  1  0
 13 17  1  0
 13 11  1  0
 14 13  2  0
 15 16  2  0
 16  6  1  0
 18 17  1  0
 18 29  1  0
 18 19  1  1
 20 28  1  0
 20 19  1  0
 21 20  2  0
 22 21  1  0
 22 23  1  0
 23 28  2  0
 24 23  1  0
 24 25  2  0
 25 26  1  0
 26 27  2  0
 28 27  1  0
 29 30  1  0
 31 29  2  0
M  END
$$$$
