GYW.pdb
     RDKit          3D

 31 33  0  0  1  0  0  0  0  0999 V2000
   23.4960  -21.6103  -17.0508 N   0  0  0  0  0  0  0  0  0  0  0  0
   23.2302  -21.0670  -15.7242 C   0  0  0  0  0  0  0  0  0  0  0  0
   24.3819  -21.3381  -14.8199 C   0  0  0  0  0  0  0  0  0  0  0  0
   24.8855  -22.4739  -14.6791 O   0  0  0  0  0  0  0  0  0  0  0  0
   29.9401  -20.2372  -18.1852 O   0  0  0  0  0  0  0  0  0  0  0  0
   29.2339  -20.0237  -17.0036 C   0  0  0  0  0  0  0  0  0  0  0  0
   29.5115  -20.8944  -15.9657 C   0  0  0  0  0  0  0  0  0  0  0  0
   28.8250  -20.7006  -14.7911 C   0  0  0  0  0  0  0  0  0  0  0  0
   27.8919  -19.7003  -14.6018 C   0  0  0  0  0  0  0  0  0  0  0  0
   27.1650  -19.5279  -13.3135 C   0  0  0  0  0  0  0  0  0  0  0  0
   26.0416  -20.4755  -13.1470 C   0  0  2  0  0  0  0  0  0  0  0  0
   24.9557  -20.2878  -14.0727 N   0  0  0  0  0  0  0  0  0  0  0  0
   25.4908  -20.4871  -11.7791 C   0  0  0  0  0  0  0  0  0  0  0  0
   24.4002  -19.9425  -11.4515 O   0  0  0  0  0  0  0  0  0  0  0  0
   27.6521  -18.8572  -15.6719 C   0  0  0  0  0  0  0  0  0  0  0  0
   28.3175  -19.0241  -16.8505 C   0  0  0  0  0  0  0  0  0  0  0  0
   26.1966  -21.1356  -10.7501 N   0  0  0  0  0  0  0  0  0  0  0  0
   25.7353  -21.0566   -9.3374 C   0  0  1  0  0  0  0  0  0  0  0  0
   26.7739  -21.7836   -8.5594 C   0  0  0  0  0  0  0  0  0  0  0  0
   26.7683  -21.4691   -7.1360 C   0  0  0  0  0  0  0  0  0  0  0  0
   25.7188  -21.7183   -6.2879 C   0  0  0  0  0  0  0  0  0  0  0  0
   26.0539  -21.2627   -5.0813 N   0  0  0  0  0  0  0  0  0  0  0  0
   27.2960  -20.7248   -5.1257 C   0  0  0  0  0  0  0  0  0  0  0  0
   28.0866  -20.1420   -4.1316 C   0  0  0  0  0  0  0  0  0  0  0  0
   29.3441  -19.6810   -4.4175 C   0  0  0  0  0  0  0  0  0  0  0  0
   29.7830  -19.8194   -5.7181 C   0  0  0  0  0  0  0  0  0  0  0  0
   29.0295  -20.3799   -6.6903 C   0  0  0  0  0  0  0  0  0  0  0  0
   27.7524  -20.8510   -6.4147 C   0  0  0  0  0  0  0  0  0  0  0  0
   25.6521  -19.6423   -8.9928 C   0  0  0  0  0  0  0  0  0  0  0  0
   24.7294  -19.1074   -8.0991 O   0  0  0  0  0  0  0  0  0  0  0  0
   26.4457  -18.8011   -9.5182 O   0  0  0  0  0  0  0  0  0  0  0  0
  1  2  1  0
  3  4  2  0
  3  2  1  0
  6  5  1  0
  7  6  2  0
  8  7  1  0
  9 15  1  0
  9  8  2  0
 10  9  1  0
 11 10  1  1
 11 12  1  0
 12  3  1  0
 13 17  1  0
 13 11  1  0
 14 13  2  0
 15 16  2  0
 16  6  1  0
 18 17  1  0
 18 29  1  0
 18 19  1  1
 20 28  1  0
 20 19  1  0
 21 20  2  0
 22 21  1  0
 22 23  1  0
 23 28  2  0
 24 23  1  0
 24 25  2  0
 25 26  1  0
 26 27  2  0
 28 27  1  0
 29 30  1  0
 31 29  2  0
M  END
$$$$
