GYW.pdb
     RDKit          3D

 31 33  0  0  1  0  0  0  0  0999 V2000
   24.9497  -17.9077  -16.3870 N   0  0  0  0  0  0  0  0  0  0  0  0
   25.5364  -19.0240  -15.6553 C   0  0  0  0  0  0  0  0  0  0  0  0
   24.8325  -19.2110  -14.3563 C   0  0  0  0  0  0  0  0  0  0  0  0
   24.1506  -18.3135  -13.8150 O   0  0  0  0  0  0  0  0  0  0  0  0
   18.6061  -19.5214  -14.9905 O   0  0  0  0  0  0  0  0  0  0  0  0
   19.7178  -20.0167  -14.3127 C   0  0  0  0  0  0  0  0  0  0  0  0
   20.6019  -20.7677  -15.0654 C   0  0  0  0  0  0  0  0  0  0  0  0
   21.7053  -21.2656  -14.4151 C   0  0  0  0  0  0  0  0  0  0  0  0
   21.9678  -21.0565  -13.0755 C   0  0  0  0  0  0  0  0  0  0  0  0
   23.1736  -21.6190  -12.4068 C   0  0  0  0  0  0  0  0  0  0  0  0
   24.3202  -20.6847  -12.3908 C   0  0  2  0  0  0  0  0  0  0  0  0
   24.9175  -20.4453  -13.6782 N   0  0  0  0  0  0  0  0  0  0  0  0
   25.3834  -21.0876  -11.4517 C   0  0  0  0  0  0  0  0  0  0  0  0
   26.3311  -21.8667  -11.7489 O   0  0  0  0  0  0  0  0  0  0  0  0
   21.0515  -20.2983  -12.3690 C   0  0  0  0  0  0  0  0  0  0  0  0
   19.9467  -19.7907  -12.9864 C   0  0  0  0  0  0  0  0  0  0  0  0
   25.3734  -20.5931  -10.1354 N   0  0  0  0  0  0  0  0  0  0  0  0
   26.3954  -21.0296   -9.1455 C   0  0  1  0  0  0  0  0  0  0  0  0
   27.3049  -19.8615   -9.0010 C   0  0  0  0  0  0  0  0  0  0  0  0
   28.3742  -20.0667   -8.0318 C   0  0  0  0  0  0  0  0  0  0  0  0
   29.5019  -20.8135   -8.2632 C   0  0  0  0  0  0  0  0  0  0  0  0
   30.2280  -20.8108   -7.1459 N   0  0  0  0  0  0  0  0  0  0  0  0
   29.5992  -20.0795   -6.1952 C   0  0  0  0  0  0  0  0  0  0  0  0
   29.9594  -19.7660   -4.8818 C   0  0  0  0  0  0  0  0  0  0  0  0
   29.1557  -18.9746   -4.1051 C   0  0  0  0  0  0  0  0  0  0  0  0
   27.9896  -18.5103   -4.6776 C   0  0  0  0  0  0  0  0  0  0  0  0
   27.6275  -18.8057   -5.9460 C   0  0  0  0  0  0  0  0  0  0  0  0
   28.4325  -19.6076   -6.7447 C   0  0  0  0  0  0  0  0  0  0  0  0
   25.6865  -21.3547   -7.9136 C   0  0  0  0  0  0  0  0  0  0  0  0
   26.1291  -22.2848   -6.9779 O   0  0  0  0  0  0  0  0  0  0  0  0
   24.5867  -20.7854   -7.6310 O   0  0  0  0  0  0  0  0  0  0  0  0
  1  2  1  0
  3  4  2  0
  3  2  1  0
  6  5  1  0
  7  6  2  0
  8  7  1  0
  9 15  1  0
  9  8  2  0
 10  9  1  0
 11 10  1  6
 11 12  1  0
 12  3  1  0
 13 17  1  0
 13 11  1  0
 14 13  2  0
 15 16  2  0
 16  6  1  0
 18 17  1  0
 18 29  1  0
 18 19  1  1
 20 28  1  0
 20 19  1  0
 21 20  2  0
 22 21  1  0
 22 23  1  0
 23 28  2  0
 24 23  1  0
 24 25  2  0
 25 26  1  0
 26 27  2  0
 28 27  1  0
 29 30  1  0
 31 29  2  0
M  END
$$$$
