GYW.pdb
     RDKit          3D

 31 33  0  0  1  0  0  0  0  0999 V2000
   29.2558  -19.5289  -19.7226 N   0  0  0  0  0  0  0  0  0  0  0  0
   29.6176  -19.9686  -18.3804 C   0  0  0  0  0  0  0  0  0  0  0  0
   29.9965  -21.4088  -18.3983 C   0  0  0  0  0  0  0  0  0  0  0  0
   29.8701  -22.1344  -19.4087 O   0  0  0  0  0  0  0  0  0  0  0  0
   33.5604  -29.1007  -16.0661 O   0  0  0  0  0  0  0  0  0  0  0  0
   33.1844  -27.7600  -16.1076 C   0  0  0  0  0  0  0  0  0  0  0  0
   32.1925  -27.3808  -15.2219 C   0  0  0  0  0  0  0  0  0  0  0  0
   31.8072  -26.0619  -15.2472 C   0  0  0  0  0  0  0  0  0  0  0  0
   32.3511  -25.1181  -16.0961 C   0  0  0  0  0  0  0  0  0  0  0  0
   31.9008  -23.6986  -16.0957 C   0  0  0  0  0  0  0  0  0  0  0  0
   30.9520  -23.3880  -17.1871 C   0  0  2  0  0  0  0  0  0  0  0  0
   30.5256  -22.0143  -17.2390 N   0  0  0  0  0  0  0  0  0  0  0  0
   29.7538  -24.2475  -17.1758 C   0  0  0  0  0  0  0  0  0  0  0  0
   28.7514  -24.0530  -16.4336 O   0  0  0  0  0  0  0  0  0  0  0  0
   33.3397  -25.5503  -16.9617 C   0  0  0  0  0  0  0  0  0  0  0  0
   33.7434  -26.8529  -16.9604 C   0  0  0  0  0  0  0  0  0  0  0  0
   29.6883  -25.3615  -18.0313 N   0  0  0  0  0  0  0  0  0  0  0  0
   28.5451  -26.3121  -17.9647 C   0  0  1  0  0  0  0  0  0  0  0  0
   27.6803  -25.9447  -19.1176 C   0  0  0  0  0  0  0  0  0  0  0  0
   26.5004  -26.7891  -19.2587 C   0  0  0  0  0  0  0  0  0  0  0  0
   25.3430  -26.6362  -18.5376 C   0  0  0  0  0  0  0  0  0  0  0  0
   24.5055  -27.6064  -18.9021 N   0  0  0  0  0  0  0  0  0  0  0  0
   25.0910  -28.3847  -19.8430 C   0  0  0  0  0  0  0  0  0  0  0  0
   24.6221  -29.5003  -20.5420 C   0  0  0  0  0  0  0  0  0  0  0  0
   25.4047  -30.1185  -21.4806 C   0  0  0  0  0  0  0  0  0  0  0  0
   26.6608  -29.5908  -21.6970 C   0  0  0  0  0  0  0  0  0  0  0  0
   27.1284  -28.5132  -21.0282 C   0  0  0  0  0  0  0  0  0  0  0  0
   26.3460  -27.8770  -20.0732 C   0  0  0  0  0  0  0  0  0  0  0  0
   29.0994  -27.6563  -18.0746 C   0  0  0  0  0  0  0  0  0  0  0  0
   30.4243  -27.9325  -18.3984 O   0  0  0  0  0  0  0  0  0  0  0  0
   28.3675  -28.6756  -17.8776 O   0  0  0  0  0  0  0  0  0  0  0  0
  1  2  1  0
  3  4  2  0
  3  2  1  0
  6  5  1  0
  7  6  2  0
  8  7  1  0
  9 15  1  0
  9  8  2  0
 10  9  1  0
 11 10  1  1
 11 12  1  0
 12  3  1  0
 13 17  1  0
 13 11  1  0
 14 13  2  0
 15 16  2  0
 16  6  1  0
 18 17  1  0
 18 29  1  0
 18 19  1  6
 20 28  1  0
 20 19  1  0
 21 20  2  0
 22 21  1  0
 22 23  1  0
 23 28  2  0
 24 23  1  0
 24 25  2  0
 25 26  1  0
 26 27  2  0
 28 27  1  0
 29 30  1  0
 31 29  2  0
M  END
$$$$
