GYW.pdb
     RDKit          3D

 31 33  0  0  1  0  0  0  0  0999 V2000
   24.8244  -28.7577  -17.7429 N   0  0  0  0  0  0  0  0  0  0  0  0
   25.8055  -29.2033  -18.7250 C   0  0  0  0  0  0  0  0  0  0  0  0
   27.1799  -28.8532  -18.2706 C   0  0  0  0  0  0  0  0  0  0  0  0
   27.4057  -28.1422  -17.2672 O   0  0  0  0  0  0  0  0  0  0  0  0
   26.9014  -33.2253  -14.6553 O   0  0  0  0  0  0  0  0  0  0  0  0
   27.7599  -32.4344  -15.4154 C   0  0  0  0  0  0  0  0  0  0  0  0
   27.9073  -32.8005  -16.7408 C   0  0  0  0  0  0  0  0  0  0  0  0
   28.7503  -32.0327  -17.5079 C   0  0  0  0  0  0  0  0  0  0  0  0
   29.4421  -30.9375  -17.0291 C   0  0  0  0  0  0  0  0  0  0  0  0
   30.3512  -30.1346  -17.8931 C   0  0  0  0  0  0  0  0  0  0  0  0
   29.6599  -29.0380  -18.6057 C   0  0  2  0  0  0  0  0  0  0  0  0
   28.3016  -29.3291  -18.9819 N   0  0  0  0  0  0  0  0  0  0  0  0
   30.3862  -28.5763  -19.8032 C   0  0  0  0  0  0  0  0  0  0  0  0
   30.0576  -28.8697  -20.9861 O   0  0  0  0  0  0  0  0  0  0  0  0
   29.2587  -30.6148  -15.6966 C   0  0  0  0  0  0  0  0  0  0  0  0
   28.4287  -31.3576  -14.9097 C   0  0  0  0  0  0  0  0  0  0  0  0
   31.5196  -27.7569  -19.6569 N   0  0  0  0  0  0  0  0  0  0  0  0
   32.2425  -27.2302  -20.8464 C   0  0  1  0  0  0  0  0  0  0  0  0
   31.2643  -27.3381  -21.9617 C   0  0  0  0  0  0  0  0  0  0  0  0
   31.8083  -26.9546  -23.2586 C   0  0  0  0  0  0  0  0  0  0  0  0
   33.0649  -27.2807  -23.7028 C   0  0  0  0  0  0  0  0  0  0  0  0
   33.2274  -26.7288  -24.9048 N   0  0  0  0  0  0  0  0  0  0  0  0
   32.1061  -26.0533  -25.2518 C   0  0  0  0  0  0  0  0  0  0  0  0
   31.7806  -25.3331  -26.4043 C   0  0  0  0  0  0  0  0  0  0  0  0
   30.5514  -24.7443  -26.5384 C   0  0  0  0  0  0  0  0  0  0  0  0
   29.6648  -24.8966  -25.4925 C   0  0  0  0  0  0  0  0  0  0  0  0
   29.9656  -25.5893  -24.3714 C   0  0  0  0  0  0  0  0  0  0  0  0
   31.2084  -26.1908  -24.2217 C   0  0  0  0  0  0  0  0  0  0  0  0
   32.6136  -25.8525  -20.5461 C   0  0  0  0  0  0  0  0  0  0  0  0
   33.8118  -25.2619  -20.9360 O   0  0  0  0  0  0  0  0  0  0  0  0
   31.8315  -25.1018  -19.8840 O   0  0  0  0  0  0  0  0  0  0  0  0
  1  2  1  0
  3  4  2  0
  3  2  1  0
  6  5  1  0
  7  6  2  0
  8  7  1  0
  9 15  1  0
  9  8  2  0
 10  9  1  0
 11 10  1  6
 11 12  1  0
 12  3  1  0
 13 17  1  0
 13 11  1  0
 14 13  2  0
 15 16  2  0
 16  6  1  0
 18 17  1  0
 18 29  1  0
 18 19  1  6
 20 28  1  0
 20 19  1  0
 21 20  2  0
 22 21  1  0
 22 23  1  0
 23 28  2  0
 24 23  1  0
 24 25  2  0
 25 26  1  0
 26 27  2  0
 28 27  1  0
 29 30  1  0
 31 29  2  0
M  END
$$$$
