GYW.pdb
     RDKit          3D

 31 33  0  0  1  0  0  0  0  0999 V2000
   13.5693  -16.4917    3.0590 N   0  0  0  0  0  0  0  0  0  0  0  0
   13.6845  -17.9396    2.9317 C   0  0  0  0  0  0  0  0  0  0  0  0
   14.6737  -18.4626    3.9144 C   0  0  0  0  0  0  0  0  0  0  0  0
   14.5406  -18.3326    5.1508 O   0  0  0  0  0  0  0  0  0  0  0  0
   21.3103  -22.9353    7.5042 O   0  0  0  0  0  0  0  0  0  0  0  0
   20.4384  -22.3763    6.5728 C   0  0  0  0  0  0  0  0  0  0  0  0
   19.1205  -22.7874    6.6530 C   0  0  0  0  0  0  0  0  0  0  0  0
   18.2441  -22.2474    5.7426 C   0  0  0  0  0  0  0  0  0  0  0  0
   18.6085  -21.3340    4.7729 C   0  0  0  0  0  0  0  0  0  0  0  0
   17.6278  -20.7766    3.8006 C   0  0  0  0  0  0  0  0  0  0  0  0
   16.8426  -19.6484    4.3471 C   0  0  2  0  0  0  0  0  0  0  0  0
   15.8257  -19.1414    3.4638 N   0  0  0  0  0  0  0  0  0  0  0  0
   17.6811  -18.5188    4.7891 C   0  0  0  0  0  0  0  0  0  0  0  0
   18.2335  -17.6990    4.0043 O   0  0  0  0  0  0  0  0  0  0  0  0
   19.9388  -20.9567    4.7366 C   0  0  0  0  0  0  0  0  0  0  0  0
   20.8325  -21.4751    5.6266 C   0  0  0  0  0  0  0  0  0  0  0  0
   17.9008  -18.3108    6.1624 N   0  0  0  0  0  0  0  0  0  0  0  0
   18.8336  -17.2527    6.6370 C   0  0  1  0  0  0  0  0  0  0  0  0
   17.9532  -16.1168    7.0205 C   0  0  0  0  0  0  0  0  0  0  0  0
   18.1739  -14.9109    6.2318 C   0  0  0  0  0  0  0  0  0  0  0  0
   17.3418  -14.4704    5.2337 C   0  0  0  0  0  0  0  0  0  0  0  0
   17.8802  -13.3690    4.7116 N   0  0  0  0  0  0  0  0  0  0  0  0
   19.0413  -13.0835    5.3476 C   0  0  0  0  0  0  0  0  0  0  0  0
   19.9530  -12.0375    5.1812 C   0  0  0  0  0  0  0  0  0  0  0  0
   21.0660  -11.9458    5.9740 C   0  0  0  0  0  0  0  0  0  0  0  0
   21.2378  -12.9247    6.9307 C   0  0  0  0  0  0  0  0  0  0  0  0
   20.3652  -13.9427    7.1028 C   0  0  0  0  0  0  0  0  0  0  0  0
   19.2330  -14.0485    6.3055 C   0  0  0  0  0  0  0  0  0  0  0  0
   19.5711  -17.8074    7.7659 C   0  0  0  0  0  0  0  0  0  0  0  0
   20.6101  -17.1523    8.4200 O   0  0  0  0  0  0  0  0  0  0  0  0
   19.2912  -18.9614    8.2168 O   0  0  0  0  0  0  0  0  0  0  0  0
  1  2  1  0
  3  4  2  0
  3  2  1  0
  6  5  1  0
  7  6  2  0
  8  7  1  0
  9 15  1  0
  9  8  2  0
 10  9  1  0
 11 10  1  6
 11 12  1  0
 12  3  1  0
 13 17  1  0
 13 11  1  0
 14 13  2  0
 15 16  2  0
 16  6  1  0
 18 17  1  0
 18 29  1  0
 18 19  1  1
 20 28  1  0
 20 19  1  0
 21 20  2  0
 22 21  1  0
 22 23  1  0
 23 28  2  0
 24 23  1  0
 24 25  2  0
 25 26  1  0
 26 27  2  0
 28 27  1  0
 29 30  1  0
 31 29  2  0
M  END
$$$$
