LKT.pdb
     RDKit          3D

 25 24  0  0  1  0  0  0  0  0999 V2000
   14.0718  -14.5479  -17.8143 C   0  0  0  0  0  0  0  0  0  0  0  0
   13.8099  -14.5713  -16.3287 C   0  0  2  0  0  0  0  0  0  0  0  0
   12.4182  -14.0329  -16.1031 C   0  0  0  0  0  0  0  0  0  0  0  0
   14.7951  -13.6702  -15.6130 C   0  0  0  0  0  0  0  0  0  0  0  0
   16.2206  -14.1136  -15.8450 C   0  0  2  0  0  0  0  0  0  0  0  0
   16.4365  -15.3045  -15.0564 N   0  0  0  0  0  0  0  0  0  0  0  0
   17.0886  -12.9767  -15.3601 C   0  0  0  0  0  0  0  0  0  0  0  0
   17.2033  -12.8861  -14.1195 O   0  0  0  0  0  0  0  0  0  0  0  0
   17.7116  -12.0977  -16.2567 N   0  0  0  0  0  0  0  0  0  0  0  0
   18.6686  -11.0952  -15.7829 C   0  0  1  0  0  0  0  0  0  0  0  0
   19.8474  -11.1677  -16.6908 C   0  0  0  0  0  0  0  0  0  0  0  0
   20.8370  -12.2518  -16.4367 C   0  0  0  0  0  0  0  0  0  0  0  0
   22.0617  -12.1803  -17.3173 C   0  0  0  0  0  0  0  0  0  0  0  0
   22.9653  -13.3462  -16.9375 C   0  0  0  0  0  0  0  0  0  0  0  0
   24.1284  -13.3621  -17.8057 N   0  0  0  0  0  0  0  0  0  0  0  0
   17.9795   -9.7860  -15.7226 C   0  0  0  0  0  0  0  0  0  0  0  0
   17.2890   -9.4260  -16.7491 O   0  0  0  0  0  0  0  0  0  0  0  0
   15.1501   -8.3148  -13.5642 C   0  0  0  0  0  0  0  0  0  0  0  0
   16.3486   -7.4257  -13.5630 C   0  0  1  0  0  0  0  0  0  0  0  0
   17.0931   -7.6831  -12.4127 O   0  0  0  0  0  0  0  0  0  0  0  0
   17.2603   -7.6348  -14.7476 C   0  0  2  0  0  0  0  0  0  0  0  0
   17.9949   -8.8838  -14.6511 N   0  0  0  0  0  0  0  0  0  0  0  0
   18.2299   -6.5259  -14.8114 C   0  0  0  0  0  0  0  0  0  0  0  0
   17.7764   -5.2328  -14.9835 O   0  0  0  0  0  0  0  0  0  0  0  0
   19.4647   -6.7986  -14.7050 O   0  0  0  0  0  0  0  0  0  0  0  0
  2  1  1  6
  2  3  1  0
  4  5  1  0
  4  2  1  0
  5  7  1  0
  5  6  1  1
  7  8  2  0
  9 10  1  0
  9  7  1  0
 11 12  1  0
 10 11  1  6
 13 14  1  0
 13 12  1  0
 15 14  1  0
 16 10  1  0
 17 16  2  0
 19 18  1  6
 19 21  1  0
 20 19  1  0
 21 23  1  0
 21 22  1  1
 22 16  1  0
 23 24  1  0
 25 23  2  0
M  END
$$$$
