LKT.pdb
     RDKit          3D

 25 24  0  0  1  0  0  0  0  0999 V2000
   25.9988  -20.1504   -7.1019 C   0  0  0  0  0  0  0  0  0  0  0  0
   27.0434  -20.3212   -8.1770 C   0  0  2  0  0  0  0  0  0  0  0  0
   28.1116  -19.2811   -7.9432 C   0  0  0  0  0  0  0  0  0  0  0  0
   26.4295  -20.0808   -9.5410 C   0  0  0  0  0  0  0  0  0  0  0  0
   26.7155  -21.2241  -10.4861 C   0  0  2  0  0  0  0  0  0  0  0  0
   28.1499  -21.3174  -10.6301 N   0  0  0  0  0  0  0  0  0  0  0  0
   26.0620  -20.8485  -11.7949 C   0  0  0  0  0  0  0  0  0  0  0  0
   26.6983  -20.0306  -12.4924 O   0  0  0  0  0  0  0  0  0  0  0  0
   24.8284  -21.3917  -12.1793 N   0  0  0  0  0  0  0  0  0  0  0  0
   24.3768  -21.3193  -13.5708 C   0  0  1  0  0  0  0  0  0  0  0  0
   24.2476  -22.7234  -14.0514 C   0  0  0  0  0  0  0  0  0  0  0  0
   25.5016  -23.4302  -14.4345 C   0  0  0  0  0  0  0  0  0  0  0  0
   25.9726  -23.1234  -15.8361 C   0  0  0  0  0  0  0  0  0  0  0  0
   27.2886  -23.8608  -16.0468 C   0  0  0  0  0  0  0  0  0  0  0  0
   27.7634  -23.6303  -17.3989 N   0  0  0  0  0  0  0  0  0  0  0  0
   23.1413  -20.5046  -13.6172 C   0  0  0  0  0  0  0  0  0  0  0  0
   22.3776  -20.5168  -12.5796 O   0  0  0  0  0  0  0  0  0  0  0  0
   22.4389  -16.6436  -15.1018 C   0  0  0  0  0  0  0  0  0  0  0  0
   21.4955  -17.7321  -15.4916 C   0  0  1  0  0  0  0  0  0  0  0  0
   21.8590  -18.2068  -16.7511 O   0  0  0  0  0  0  0  0  0  0  0  0
   21.5025  -18.9085  -14.5459 C   0  0  2  0  0  0  0  0  0  0  0  0
   22.7081  -19.7063  -14.6838 N   0  0  0  0  0  0  0  0  0  0  0  0
   20.3386  -19.7663  -14.8349 C   0  0  0  0  0  0  0  0  0  0  0  0
   19.0641  -19.2863  -14.6052 O   0  0  0  0  0  0  0  0  0  0  0  0
   20.5479  -20.9319  -15.2908 O   0  0  0  0  0  0  0  0  0  0  0  0
  2  1  1  1
  2  3  1  0
  4  5  1  0
  4  2  1  0
  5  7  1  0
  5  6  1  6
  7  8  2  0
  9 10  1  0
  9  7  1  0
 11 12  1  0
 10 11  1  1
 13 14  1  0
 13 12  1  0
 15 14  1  0
 16 10  1  0
 17 16  2  0
 19 18  1  1
 19 21  1  0
 20 19  1  0
 21 23  1  0
 21 22  1  6
 22 16  1  0
 23 24  1  0
 25 23  2  0
M  END
$$$$
