LKT.pdb
     RDKit          3D

 25 24  0  0  1  0  0  0  0  0999 V2000
   28.9056  -20.6455  -12.8237 C   0  0  0  0  0  0  0  0  0  0  0  0
   28.3231  -20.4764  -11.4423 C   0  0  2  0  0  0  0  0  0  0  0  0
   29.1669  -21.2878  -10.4899 C   0  0  0  0  0  0  0  0  0  0  0  0
   26.9071  -21.0135  -11.4062 C   0  0  0  0  0  0  0  0  0  0  0  0
   26.0224  -20.3103  -12.4087 C   0  0  2  0  0  0  0  0  0  0  0  0
   26.1329  -18.8912  -12.1622 N   0  0  0  0  0  0  0  0  0  0  0  0
   24.6205  -20.8012  -12.1350 C   0  0  0  0  0  0  0  0  0  0  0  0
   24.4456  -22.0279  -12.2926 O   0  0  0  0  0  0  0  0  0  0  0  0
   23.6034  -19.9242  -11.7336 N   0  0  0  0  0  0  0  0  0  0  0  0
   22.2273  -20.3967  -11.5655 C   0  0  1  0  0  0  0  0  0  0  0  0
   21.6950  -19.7348  -10.3417 C   0  0  0  0  0  0  0  0  0  0  0  0
   21.5083  -20.5860   -9.1336 C   0  0  0  0  0  0  0  0  0  0  0  0
   20.5874  -21.7629   -9.3513 C   0  0  0  0  0  0  0  0  0  0  0  0
   20.3787  -22.4348   -8.0004 C   0  0  0  0  0  0  0  0  0  0  0  0
   19.5261  -23.5982   -8.1631 N   0  0  0  0  0  0  0  0  0  0  0  0
   21.4866  -20.1280  -12.8191 C   0  0  0  0  0  0  0  0  0  0  0  0
   21.3076  -18.8973  -13.1557 O   0  0  0  0  0  0  0  0  0  0  0  0
   22.2264  -21.1595  -16.4828 C   0  0  0  0  0  0  0  0  0  0  0  0
   20.8087  -21.4471  -16.1166 C   0  0  1  0  0  0  0  0  0  0  0  0
   20.6972  -22.7990  -15.7945 O   0  0  0  0  0  0  0  0  0  0  0  0
   20.3170  -20.6573  -14.9280 C   0  0  2  0  0  0  0  0  0  0  0  0
   20.9539  -21.0833  -13.6944 N   0  0  0  0  0  0  0  0  0  0  0  0
   18.8611  -20.8468  -14.7921 C   0  0  0  0  0  0  0  0  0  0  0  0
   18.3656  -21.5888  -13.7380 O   0  0  0  0  0  0  0  0  0  0  0  0
   18.1012  -20.3156  -15.6586 O   0  0  0  0  0  0  0  0  0  0  0  0
  2  1  1  6
  2  3  1  0
  4  5  1  0
  4  2  1  0
  5  7  1  0
  5  6  1  1
  7  8  2  0
  9 10  1  0
  9  7  1  0
 11 12  1  0
 10 11  1  1
 13 14  1  0
 13 12  1  0
 15 14  1  0
 16 10  1  0
 17 16  2  0
 19 18  1  1
 19 21  1  0
 20 19  1  0
 21 23  1  0
 21 22  1  1
 22 16  1  0
 23 24  1  0
 25 23  2  0
M  END
$$$$
