LKT.pdb
     RDKit          3D

 25 24  0  0  1  0  0  0  0  0999 V2000
   23.8580  -13.2208  -15.3928 C   0  0  0  0  0  0  0  0  0  0  0  0
   24.2686  -12.3515  -16.5555 C   0  0  2  0  0  0  0  0  0  0  0  0
   25.7413  -12.0576  -16.4065 C   0  0  0  0  0  0  0  0  0  0  0  0
   23.5110  -11.0402  -16.5170 C   0  0  0  0  0  0  0  0  0  0  0  0
   22.0276  -11.2520  -16.7093 C   0  0  2  0  0  0  0  0  0  0  0  0
   21.8394  -11.8264  -18.0214 N   0  0  0  0  0  0  0  0  0  0  0  0
   21.4021   -9.8799  -16.6227 C   0  0  0  0  0  0  0  0  0  0  0  0
   21.6728   -9.1107  -17.5688 O   0  0  0  0  0  0  0  0  0  0  0  0
   20.5793   -9.5173  -15.5474 N   0  0  0  0  0  0  0  0  0  0  0  0
   19.8737   -8.2338  -15.5413 C   0  0  1  0  0  0  0  0  0  0  0  0
   18.5356   -8.4851  -14.9367 C   0  0  0  0  0  0  0  0  0  0  0  0
   17.4659   -8.9963  -15.8386 C   0  0  0  0  0  0  0  0  0  0  0  0
   16.1650   -9.2989  -15.1339 C   0  0  0  0  0  0  0  0  0  0  0  0
   15.2451   -9.9725  -16.1440 C   0  0  0  0  0  0  0  0  0  0  0  0
   14.0178  -10.3816  -15.4858 N   0  0  0  0  0  0  0  0  0  0  0  0
   20.7212   -7.2401  -14.8436 C   0  0  0  0  0  0  0  0  0  0  0  0
   21.3298   -7.6197  -13.7733 O   0  0  0  0  0  0  0  0  0  0  0  0
   22.4247   -3.7530  -16.5582 C   0  0  0  0  0  0  0  0  0  0  0  0
   22.9619   -4.5340  -15.4058 C   0  0  1  0  0  0  0  0  0  0  0  0
   23.7645   -3.6948  -14.6342 O   0  0  0  0  0  0  0  0  0  0  0  0
   21.8915   -5.0935  -14.5004 C   0  0  2  0  0  0  0  0  0  0  0  0
   20.9389   -5.9114  -15.2301 N   0  0  0  0  0  0  0  0  0  0  0  0
   21.1627   -3.9780  -13.8689 C   0  0  0  0  0  0  0  0  0  0  0  0
   21.8344   -3.1163  -13.0240 O   0  0  0  0  0  0  0  0  0  0  0  0
   19.9271   -3.8441  -14.1252 O   0  0  0  0  0  0  0  0  0  0  0  0
  2  1  1  1
  2  3  1  0
  4  5  1  0
  4  2  1  0
  5  7  1  0
  5  6  1  6
  7  8  2  0
  9 10  1  0
  9  7  1  0
 11 12  1  0
 10 11  1  1
 13 14  1  0
 13 12  1  0
 15 14  1  0
 16 10  1  0
 17 16  2  0
 19 18  1  6
 19 21  1  0
 20 19  1  0
 21 23  1  0
 21 22  1  6
 22 16  1  0
 23 24  1  0
 25 23  2  0
M  END
$$$$
