LKT.pdb
     RDKit          3D

 25 24  0  0  1  0  0  0  0  0999 V2000
   26.9422  -13.8998  -15.0068 C   0  0  0  0  0  0  0  0  0  0  0  0
   25.8418  -13.7986  -16.0339 C   0  0  2  0  0  0  0  0  0  0  0  0
   24.8410  -12.7873  -15.5309 C   0  0  0  0  0  0  0  0  0  0  0  0
   25.1426  -15.1346  -16.1797 C   0  0  0  0  0  0  0  0  0  0  0  0
   26.1066  -16.2219  -16.5928 C   0  0  2  0  0  0  0  0  0  0  0  0
   26.6206  -15.8715  -17.8966 N   0  0  0  0  0  0  0  0  0  0  0  0
   25.2915  -17.4920  -16.6542 C   0  0  0  0  0  0  0  0  0  0  0  0
   24.5388  -17.5942  -17.6457 O   0  0  0  0  0  0  0  0  0  0  0  0
   25.3891  -18.4730  -15.6577 N   0  0  0  0  0  0  0  0  0  0  0  0
   24.7028  -19.7591  -15.8003 C   0  0  1  0  0  0  0  0  0  0  0  0
   25.6616  -20.8068  -15.3505 C   0  0  0  0  0  0  0  0  0  0  0  0
   26.4496  -21.5060  -16.4037 C   0  0  0  0  0  0  0  0  0  0  0  0
   27.3409  -22.6034  -15.8728 C   0  0  0  0  0  0  0  0  0  0  0  0
   28.0727  -23.2120  -17.0621 C   0  0  0  0  0  0  0  0  0  0  0  0
   28.9682  -24.2562  -16.5988 N   0  0  0  0  0  0  0  0  0  0  0  0
   23.4253  -19.6900  -15.0549 C   0  0  0  0  0  0  0  0  0  0  0  0
   23.4819  -19.4308  -13.7941 O   0  0  0  0  0  0  0  0  0  0  0  0
   20.3225  -17.3671  -15.3688 C   0  0  0  0  0  0  0  0  0  0  0  0
   19.9418  -18.8099  -15.3605 C   0  0  1  0  0  0  0  0  0  0  0  0
   19.7706  -19.2332  -16.6778 O   0  0  0  0  0  0  0  0  0  0  0  0
   20.9781  -19.7072  -14.7285 C   0  0  2  0  0  0  0  0  0  0  0  0
   22.1408  -19.8756  -15.5822 N   0  0  0  0  0  0  0  0  0  0  0  0
   20.3824  -21.0334  -14.4830 C   0  0  0  0  0  0  0  0  0  0  0  0
   19.3856  -21.1683  -13.5366 O   0  0  0  0  0  0  0  0  0  0  0  0
   20.8099  -22.0198  -15.1572 O   0  0  0  0  0  0  0  0  0  0  0  0
  2  1  1  1
  2  3  1  0
  4  5  1  0
  4  2  1  0
  5  7  1  0
  5  6  1  6
  7  8  2  0
  9 10  1  0
  9  7  1  0
 11 12  1  0
 10 11  1  1
 13 14  1  0
 13 12  1  0
 15 14  1  0
 16 10  1  0
 17 16  2  0
 19 18  1  6
 19 21  1  0
 20 19  1  0
 21 23  1  0
 21 22  1  6
 22 16  1  0
 23 24  1  0
 25 23  2  0
M  END
$$$$
