LKT.pdb
     RDKit          3D

 25 24  0  0  1  0  0  0  0  0999 V2000
   23.3395  -16.4774  -15.1294 C   0  0  0  0  0  0  0  0  0  0  0  0
   24.1885  -15.4574  -15.8470 C   0  0  2  0  0  0  0  0  0  0  0  0
   25.3774  -15.1551  -14.9680 C   0  0  0  0  0  0  0  0  0  0  0  0
   23.4034  -14.1777  -16.0495 C   0  0  0  0  0  0  0  0  0  0  0  0
   22.1597  -14.4157  -16.8734 C   0  0  2  0  0  0  0  0  0  0  0  0
   22.5842  -14.8943  -18.1686 N   0  0  0  0  0  0  0  0  0  0  0  0
   21.4792  -13.0722  -16.9876 C   0  0  0  0  0  0  0  0  0  0  0  0
   22.0743  -12.2323  -17.6951 O   0  0  0  0  0  0  0  0  0  0  0  0
   20.2660  -12.8087  -16.3368 N   0  0  0  0  0  0  0  0  0  0  0  0
   19.5537  -11.5481  -16.5577 C   0  0  1  0  0  0  0  0  0  0  0  0
   18.1110  -11.8237  -16.3090 C   0  0  0  0  0  0  0  0  0  0  0  0
   17.1620  -10.6877  -16.4763 C   0  0  0  0  0  0  0  0  0  0  0  0
   15.7192  -11.0539  -16.2214 C   0  0  0  0  0  0  0  0  0  0  0  0
   14.8774   -9.8170  -16.5074 C   0  0  0  0  0  0  0  0  0  0  0  0
   13.4736  -10.1285  -16.3092 N   0  0  0  0  0  0  0  0  0  0  0  0
   20.1697  -10.5092  -15.7012 C   0  0  0  0  0  0  0  0  0  0  0  0
   20.4642  -10.8311  -14.4889 O   0  0  0  0  0  0  0  0  0  0  0  0
   23.5236   -8.7576  -15.9061 C   0  0  0  0  0  0  0  0  0  0  0  0
   22.4328   -7.7528  -15.7417 C   0  0  1  0  0  0  0  0  0  0  0  0
   22.1065   -7.2401  -16.9965 O   0  0  0  0  0  0  0  0  0  0  0  0
   21.1691   -8.3216  -15.1434 C   0  0  2  0  0  0  0  0  0  0  0  0
   20.4749   -9.1939  -16.0741 N   0  0  0  0  0  0  0  0  0  0  0  0
   20.2669   -7.2137  -14.7793 C   0  0  0  0  0  0  0  0  0  0  0  0
   20.6302   -6.3417  -13.7718 O   0  0  0  0  0  0  0  0  0  0  0  0
   19.1726   -7.0957  -15.4109 O   0  0  0  0  0  0  0  0  0  0  0  0
  2  1  1  1
  2  3  1  0
  4  5  1  0
  4  2  1  0
  5  7  1  0
  5  6  1  6
  7  8  2  0
  9 10  1  0
  9  7  1  0
 11 12  1  0
 10 11  1  1
 13 14  1  0
 13 12  1  0
 15 14  1  0
 16 10  1  0
 17 16  2  0
 19 18  1  6
 19 21  1  0
 20 19  1  0
 21 23  1  0
 21 22  1  6
 22 16  1  0
 23 24  1  0
 25 23  2  0
M  END
$$$$
