LKT.pdb
     RDKit          3D

 25 24  0  0  1  0  0  0  0  0999 V2000
   27.1375  -21.3712   -7.5020 C   0  0  0  0  0  0  0  0  0  0  0  0
   27.6458  -20.1556   -8.2370 C   0  0  2  0  0  0  0  0  0  0  0  0
   27.3148  -18.9452   -7.3987 C   0  0  0  0  0  0  0  0  0  0  0  0
   26.9411  -20.0228   -9.5715 C   0  0  0  0  0  0  0  0  0  0  0  0
   27.2095  -21.2145  -10.4604 C   0  0  2  0  0  0  0  0  0  0  0  0
   28.5800  -21.1202  -10.9076 N   0  0  0  0  0  0  0  0  0  0  0  0
   26.2503  -21.0865  -11.6199 C   0  0  0  0  0  0  0  0  0  0  0  0
   26.5227  -20.1838  -12.4392 O   0  0  0  0  0  0  0  0  0  0  0  0
   25.1394  -21.9317  -11.7474 N   0  0  0  0  0  0  0  0  0  0  0  0
   24.4952  -22.1343  -13.0471 C   0  0  1  0  0  0  0  0  0  0  0  0
   24.3606  -23.6063  -13.2322 C   0  0  0  0  0  0  0  0  0  0  0  0
   24.0439  -24.0942  -14.6036 C   0  0  0  0  0  0  0  0  0  0  0  0
   25.0820  -23.7281  -15.6375 C   0  0  0  0  0  0  0  0  0  0  0  0
   24.5527  -24.1762  -16.9937 C   0  0  0  0  0  0  0  0  0  0  0  0
   24.0465  -23.0269  -17.7214 N   0  0  0  0  0  0  0  0  0  0  0  0
   23.2314  -21.3630  -13.0654 C   0  0  0  0  0  0  0  0  0  0  0  0
   22.5671  -21.2777  -11.9647 O   0  0  0  0  0  0  0  0  0  0  0  0
   21.8931  -17.6907  -14.6026 C   0  0  0  0  0  0  0  0  0  0  0  0
   21.1945  -18.9407  -15.0221 C   0  0  1  0  0  0  0  0  0  0  0  0
   21.7153  -19.3522  -16.2482 O   0  0  0  0  0  0  0  0  0  0  0  0
   21.3637  -20.0849  -14.0523 C   0  0  2  0  0  0  0  0  0  0  0  0
   22.6731  -20.7024  -14.1673 N   0  0  0  0  0  0  0  0  0  0  0  0
   20.3385  -21.1076  -14.3296 C   0  0  0  0  0  0  0  0  0  0  0  0
   19.0106  -20.8294  -14.0713 O   0  0  0  0  0  0  0  0  0  0  0  0
   20.7138  -22.2239  -14.8024 O   0  0  0  0  0  0  0  0  0  0  0  0
  2  1  1  1
  2  3  1  0
  4  5  1  0
  4  2  1  0
  5  7  1  0
  5  6  1  6
  7  8  2  0
  9 10  1  0
  9  7  1  0
 11 12  1  0
 10 11  1  1
 13 14  1  0
 13 12  1  0
 15 14  1  0
 16 10  1  0
 17 16  2  0
 19 18  1  1
 19 21  1  0
 20 19  1  0
 21 23  1  0
 21 22  1  6
 22 16  1  0
 23 24  1  0
 25 23  2  0
M  END
$$$$
