LKT.pdb
     RDKit          3D

 25 24  0  0  1  0  0  0  0  0999 V2000
   28.2899  -19.2312  -14.6765 C   0  0  0  0  0  0  0  0  0  0  0  0
   27.3057  -19.8282  -15.6518 C   0  0  2  0  0  0  0  0  0  0  0  0
   27.0228  -18.7877  -16.7076 C   0  0  0  0  0  0  0  0  0  0  0  0
   26.0079  -20.1589  -14.9437 C   0  0  0  0  0  0  0  0  0  0  0  0
   26.2109  -21.2103  -13.8780 C   0  0  2  0  0  0  0  0  0  0  0  0
   26.5702  -22.4395  -14.5465 N   0  0  0  0  0  0  0  0  0  0  0  0
   24.8814  -21.3438  -13.1740 C   0  0  0  0  0  0  0  0  0  0  0  0
   24.0448  -22.0711  -13.7497 O   0  0  0  0  0  0  0  0  0  0  0  0
   24.6265  -20.6889  -11.9612 N   0  0  0  0  0  0  0  0  0  0  0  0
   23.3203  -20.7998  -11.3079 C   0  0  1  0  0  0  0  0  0  0  0  0
   23.4809  -20.2441   -9.9351 C   0  0  0  0  0  0  0  0  0  0  0  0
   22.2758  -20.2332   -9.0596 C   0  0  0  0  0  0  0  0  0  0  0  0
   21.9170  -21.5877   -8.4965 C   0  0  0  0  0  0  0  0  0  0  0  0
   20.6093  -21.4317   -7.7312 C   0  0  0  0  0  0  0  0  0  0  0  0
   20.1776  -22.7268   -7.2381 N   0  0  0  0  0  0  0  0  0  0  0  0
   22.3141  -20.1292  -12.1625 C   0  0  0  0  0  0  0  0  0  0  0  0
   22.4987  -18.8844  -12.4389 O   0  0  0  0  0  0  0  0  0  0  0  0
   21.3425  -20.1929  -15.7687 C   0  0  0  0  0  0  0  0  0  0  0  0
   20.1369  -20.4400  -14.9249 C   0  0  1  0  0  0  0  0  0  0  0  0
   19.9304  -21.8159  -14.8350 O   0  0  0  0  0  0  0  0  0  0  0  0
   20.2621  -19.9089  -13.5176 C   0  0  2  0  0  0  0  0  0  0  0  0
   21.1664  -20.7127  -12.7145 N   0  0  0  0  0  0  0  0  0  0  0  0
   18.9336  -19.9199  -12.8781 C   0  0  0  0  0  0  0  0  0  0  0  0
   18.7120  -20.7282  -11.7804 O   0  0  0  0  0  0  0  0  0  0  0  0
   18.0258  -19.1774  -13.3628 O   0  0  0  0  0  0  0  0  0  0  0  0
  2  1  1  1
  2  3  1  0
  4  5  1  0
  4  2  1  0
  5  7  1  0
  5  6  1  6
  7  8  2  0
  9 10  1  0
  9  7  1  0
 11 12  1  0
 10 11  1  1
 13 14  1  0
 13 12  1  0
 15 14  1  0
 16 10  1  0
 17 16  2  0
 19 18  1  6
 19 21  1  0
 20 19  1  0
 21 23  1  0
 21 22  1  1
 22 16  1  0
 23 24  1  0
 25 23  2  0
M  END
$$$$
