DLS.pdb
     RDKit          3D

 23 22  0  0  1  0  0  0  0  0999 V2000
    8.2555  -16.8472   21.4796 N   0  0  0  0  0  0  0  0  0  0  0  0
    9.5716  -16.5669   21.9723 C   0  0  1  0  0  0  0  0  0  0  0  0
   10.4378  -15.9455   20.9008 C   0  0  0  0  0  0  0  0  0  0  0  0
   10.5845  -16.8304   19.7280 C   0  0  0  0  0  0  0  0  0  0  0  0
   10.1837  -18.0018   19.7827 O   0  0  0  0  0  0  0  0  0  0  0  0
    9.5500  -15.6547   23.1490 C   0  0  0  0  0  0  0  0  0  0  0  0
   10.6400  -15.2243   23.6043 O   0  0  0  0  0  0  0  0  0  0  0  0
   11.1724  -16.3273   18.5816 O   0  0  0  0  0  0  0  0  0  0  0  0
    5.6956  -12.3900   26.7886 C   0  0  0  0  0  0  0  0  0  0  0  0
    7.0302  -12.8432   26.3628 C   0  0  2  0  0  0  0  0  0  0  0  0
    7.9778  -11.6469   26.3999 C   0  0  0  0  0  0  0  0  0  0  0  0
    7.1360  -13.5838   25.0889 C   0  0  0  0  0  0  0  0  0  0  0  0
    8.3400  -14.4593   24.9239 C   0  0  2  0  0  0  0  0  0  0  0  0
    8.2941  -15.2854   23.7386 N   0  0  0  0  0  0  0  0  0  0  0  0
    8.3814  -15.3663   26.0928 C   0  0  0  0  0  0  0  0  0  0  0  0
    8.5899  -14.9583   27.2688 O   0  0  0  0  0  0  0  0  0  0  0  0
    7.8862  -19.5095   25.4969 O   0  0  0  0  0  0  0  0  0  0  0  0
    7.3553  -18.9348   26.6422 C   0  0  0  0  0  0  0  0  0  0  0  0
    8.2217  -17.7158   26.9823 C   0  0  2  0  0  0  0  0  0  0  0  0
    8.1804  -16.7542   25.9014 N   0  0  0  0  0  0  0  0  0  0  0  0
    9.6056  -18.1227   27.2900 C   0  0  0  0  0  0  0  0  0  0  0  0
   10.6348  -17.6656   26.4909 O   0  0  0  0  0  0  0  0  0  0  0  0
    9.8587  -18.8658   28.2510 O   0  0  0  0  0  0  0  0  0  0  0  0
  2  1  1  6
  2  3  1  0
  3  4  1  0
  4  5  2  0
  4  8  1  0
  6 14  1  0
  6  2  1  0
  7  6  2  0
 10  9  1  6
 10 12  1  0
 11 10  1  0
 13 12  1  1
 13 14  1  0
 13 15  1  0
 15 16  2  0
 18 17  1  0
 19 18  1  6
 20 15  1  0
 20 19  1  0
 21 19  1  0
 21 22  1  0
 23 21  2  0
M  END
$$$$
