DLS.pdb
     RDKit          3D

 23 22  0  0  1  0  0  0  0  0999 V2000
    8.5796  -15.4091   20.5740 N   0  0  0  0  0  0  0  0  0  0  0  0
    7.9596  -16.0965   21.6679 C   0  0  1  0  0  0  0  0  0  0  0  0
    8.1265  -17.5933   21.5407 C   0  0  0  0  0  0  0  0  0  0  0  0
    7.5317  -18.1106   20.2922 C   0  0  0  0  0  0  0  0  0  0  0  0
    6.3260  -17.9383   20.0634 O   0  0  0  0  0  0  0  0  0  0  0  0
    8.5095  -15.6710   22.9846 C   0  0  0  0  0  0  0  0  0  0  0  0
    9.7555  -15.6752   23.1529 O   0  0  0  0  0  0  0  0  0  0  0  0
    8.3419  -18.7834   19.3955 O   0  0  0  0  0  0  0  0  0  0  0  0
    7.9147  -11.7749   25.2998 C   0  0  0  0  0  0  0  0  0  0  0  0
    6.8810  -12.7823   25.5901 C   0  0  2  0  0  0  0  0  0  0  0  0
    5.7947  -12.1249   26.4376 C   0  0  0  0  0  0  0  0  0  0  0  0
    7.3140  -14.0732   26.1634 C   0  0  0  0  0  0  0  0  0  0  0  0
    8.2024  -14.9202   25.3052 C   0  0  2  0  0  0  0  0  0  0  0  0
    7.6138  -15.2663   24.0312 N   0  0  0  0  0  0  0  0  0  0  0  0
    8.4403  -16.1831   26.0394 C   0  0  0  0  0  0  0  0  0  0  0  0
    7.5087  -16.9657   26.3752 O   0  0  0  0  0  0  0  0  0  0  0  0
   12.2210  -17.6812   26.0949 O   0  0  0  0  0  0  0  0  0  0  0  0
   11.1639  -18.5494   26.3239 C   0  0  0  0  0  0  0  0  0  0  0  0
   10.0910  -17.7664   27.0909 C   0  0  2  0  0  0  0  0  0  0  0  0
    9.7637  -16.5443   26.3879 N   0  0  0  0  0  0  0  0  0  0  0  0
   10.5258  -17.4936   28.4736 C   0  0  0  0  0  0  0  0  0  0  0  0
   10.8912  -18.5497   29.2848 O   0  0  0  0  0  0  0  0  0  0  0  0
   10.5683  -16.3357   28.9176 O   0  0  0  0  0  0  0  0  0  0  0  0
  2  1  1  6
  2  3  1  0
  3  4  1  0
  4  5  2  0
  4  8  1  0
  6 14  1  0
  6  2  1  0
  7  6  2  0
 10  9  1  1
 10 12  1  0
 11 10  1  0
 13 12  1  1
 13 14  1  0
 13 15  1  0
 15 16  2  0
 18 17  1  0
 19 18  1  6
 20 15  1  0
 20 19  1  0
 21 19  1  0
 21 22  1  0
 23 21  2  0
M  END
$$$$
