DLS.pdb
     RDKit          3D

 23 22  0  0  1  0  0  0  0  0999 V2000
    9.3133  -15.1206   20.6393 N   0  0  0  0  0  0  0  0  0  0  0  0
    8.7342  -15.9820   21.6273 C   0  0  1  0  0  0  0  0  0  0  0  0
    9.1801  -17.4135   21.4363 C   0  0  0  0  0  0  0  0  0  0  0  0
    8.8709  -17.9115   20.0811 C   0  0  0  0  0  0  0  0  0  0  0  0
    7.7525  -17.7086   19.5875 O   0  0  0  0  0  0  0  0  0  0  0  0
    9.0796  -15.5614   23.0133 C   0  0  0  0  0  0  0  0  0  0  0  0
   10.2901  -15.5110   23.3491 O   0  0  0  0  0  0  0  0  0  0  0  0
    9.8468  -18.6011   19.3846 O   0  0  0  0  0  0  0  0  0  0  0  0
    7.9501  -11.8504   25.6230 C   0  0  0  0  0  0  0  0  0  0  0  0
    6.9436  -12.9250   25.6200 C   0  0  2  0  0  0  0  0  0  0  0  0
    5.7025  -12.4222   26.3532 C   0  0  0  0  0  0  0  0  0  0  0  0
    7.3557  -14.2610   26.0973 C   0  0  0  0  0  0  0  0  0  0  0  0
    8.4178  -14.9556   25.3020 C   0  0  2  0  0  0  0  0  0  0  0  0
    8.0319  -15.2235   23.9350 N   0  0  0  0  0  0  0  0  0  0  0  0
    8.6658  -16.2607   25.9545 C   0  0  0  0  0  0  0  0  0  0  0  0
    7.8421  -17.2160   25.9098 O   0  0  0  0  0  0  0  0  0  0  0  0
   11.9364  -19.4503   26.7126 O   0  0  0  0  0  0  0  0  0  0  0  0
   11.5434  -18.2032   26.2500 C   0  0  0  0  0  0  0  0  0  0  0  0
   10.3333  -17.7691   27.0865 C   0  0  2  0  0  0  0  0  0  0  0  0
    9.8739  -16.4634   26.6635 N   0  0  0  0  0  0  0  0  0  0  0  0
   10.6541  -17.7881   28.5260 C   0  0  0  0  0  0  0  0  0  0  0  0
   10.5423  -16.6210   29.2557 O   0  0  0  0  0  0  0  0  0  0  0  0
   11.0212  -18.8310   29.0892 O   0  0  0  0  0  0  0  0  0  0  0  0
  2  1  1  6
  2  3  1  0
  3  4  1  0
  4  5  2  0
  4  8  1  0
  6 14  1  0
  6  2  1  0
  7  6  2  0
 10  9  1  1
 10 12  1  0
 11 10  1  0
 13 12  1  1
 13 14  1  0
 13 15  1  0
 15 16  2  0
 18 17  1  0
 19 18  1  6
 20 15  1  0
 20 19  1  0
 21 19  1  0
 21 22  1  0
 23 21  2  0
M  END
$$$$
