DLS.pdb
     RDKit          3D

 23 22  0  0  1  0  0  0  0  0999 V2000
    7.1796  -14.6500   20.7180 N   0  0  0  0  0  0  0  0  0  0  0  0
    8.0216  -15.6906   21.2297 C   0  0  1  0  0  0  0  0  0  0  0  0
    9.1869  -15.9580   20.3050 C   0  0  0  0  0  0  0  0  0  0  0  0
    8.7405  -16.2991   18.9395 C   0  0  0  0  0  0  0  0  0  0  0  0
    7.5853  -16.7055   18.7494 O   0  0  0  0  0  0  0  0  0  0  0  0
    8.5565  -15.3685   22.5814 C   0  0  0  0  0  0  0  0  0  0  0  0
    9.8008  -15.2755   22.7362 O   0  0  0  0  0  0  0  0  0  0  0  0
    9.6311  -16.1561   17.8909 O   0  0  0  0  0  0  0  0  0  0  0  0
    8.1475  -11.8372   25.5231 C   0  0  0  0  0  0  0  0  0  0  0  0
    7.0290  -12.7939   25.5564 C   0  0  2  0  0  0  0  0  0  0  0  0
    5.9249  -12.2111   26.4350 C   0  0  0  0  0  0  0  0  0  0  0  0
    7.3276  -14.1960   25.9134 C   0  0  0  0  0  0  0  0  0  0  0  0
    8.2289  -14.9449   24.9806 C   0  0  2  0  0  0  0  0  0  0  0  0
    7.6489  -15.1714   23.6762 N   0  0  0  0  0  0  0  0  0  0  0  0
    8.4790  -16.2708   25.5889 C   0  0  0  0  0  0  0  0  0  0  0  0
    7.5506  -17.0652   25.9049 O   0  0  0  0  0  0  0  0  0  0  0  0
   12.1954  -17.8718   25.2530 O   0  0  0  0  0  0  0  0  0  0  0  0
   11.1243  -18.7182   25.4981 C   0  0  0  0  0  0  0  0  0  0  0  0
   10.1497  -17.9646   26.4117 C   0  0  2  0  0  0  0  0  0  0  0  0
    9.8112  -16.6816   25.8338 N   0  0  0  0  0  0  0  0  0  0  0  0
   10.7086  -17.8148   27.7684 C   0  0  0  0  0  0  0  0  0  0  0  0
   11.0770  -18.9440   28.4728 O   0  0  0  0  0  0  0  0  0  0  0  0
   10.8525  -16.6956   28.2845 O   0  0  0  0  0  0  0  0  0  0  0  0
  2  1  1  6
  2  3  1  0
  3  4  1  0
  4  5  2  0
  4  8  1  0
  6 14  1  0
  6  2  1  0
  7  6  2  0
 10  9  1  1
 10 12  1  0
 11 10  1  0
 13 12  1  1
 13 14  1  0
 13 15  1  0
 15 16  2  0
 18 17  1  0
 19 18  1  6
 20 15  1  0
 20 19  1  0
 21 19  1  0
 21 22  1  0
 23 21  2  0
M  END
$$$$
