DLS.pdb
     RDKit          3D

 23 22  0  0  1  0  0  0  0  0999 V2000
   10.4964  -16.2117   21.0080 N   0  0  0  0  0  0  0  0  0  0  0  0
    9.2004  -16.1189   21.6124 C   0  0  1  0  0  0  0  0  0  0  0  0
    8.5962  -17.4875   21.8280 C   0  0  0  0  0  0  0  0  0  0  0  0
    8.1404  -18.0950   20.5618 C   0  0  0  0  0  0  0  0  0  0  0  0
    8.3600  -17.5209   19.4857 O   0  0  0  0  0  0  0  0  0  0  0  0
    9.2386  -15.4089   22.9206 C   0  0  0  0  0  0  0  0  0  0  0  0
   10.3526  -15.0761   23.3991 O   0  0  0  0  0  0  0  0  0  0  0  0
    7.4709  -19.3045   20.6047 O   0  0  0  0  0  0  0  0  0  0  0  0
    5.5576  -12.4418   26.9943 C   0  0  0  0  0  0  0  0  0  0  0  0
    6.8547  -12.9139   26.4822 C   0  0  2  0  0  0  0  0  0  0  0  0
    7.8415  -11.7501   26.5285 C   0  0  0  0  0  0  0  0  0  0  0  0
    6.8751  -13.5949   25.1713 C   0  0  0  0  0  0  0  0  0  0  0  0
    8.1086  -14.3797   24.8460 C   0  0  2  0  0  0  0  0  0  0  0  0
    8.0117  -15.1189   23.6077 N   0  0  0  0  0  0  0  0  0  0  0  0
    8.2969  -15.3646   25.9346 C   0  0  0  0  0  0  0  0  0  0  0  0
    8.5852  -15.0311   27.1172 O   0  0  0  0  0  0  0  0  0  0  0  0
    6.6481  -19.1479   25.7168 O   0  0  0  0  0  0  0  0  0  0  0  0
    7.9922  -19.1518   26.0592 C   0  0  0  0  0  0  0  0  0  0  0  0
    8.3127  -17.7761   26.6567 C   0  0  2  0  0  0  0  0  0  0  0  0
    8.1510  -16.7443   25.6547 N   0  0  0  0  0  0  0  0  0  0  0  0
    9.6685  -17.7570   27.2371 C   0  0  0  0  0  0  0  0  0  0  0  0
   10.7609  -17.7098   26.3936 O   0  0  0  0  0  0  0  0  0  0  0  0
    9.8425  -17.7825   28.4654 O   0  0  0  0  0  0  0  0  0  0  0  0
  2  1  1  1
  2  3  1  0
  3  4  1  0
  4  5  2  0
  4  8  1  0
  6 14  1  0
  6  2  1  0
  7  6  2  0
 10  9  1  6
 10 12  1  0
 11 10  1  0
 13 12  1  1
 13 14  1  0
 13 15  1  0
 15 16  2  0
 18 17  1  0
 19 18  1  6
 20 15  1  0
 20 19  1  0
 21 19  1  0
 21 22  1  0
 23 21  2  0
M  END
$$$$
