DLS.pdb
     RDKit          3D

 23 22  0  0  1  0  0  0  0  0999 V2000
    8.6105  -16.0703   20.7867 N   0  0  0  0  0  0  0  0  0  0  0  0
    9.6886  -16.4956   21.6296 C   0  0  1  0  0  0  0  0  0  0  0  0
   11.0291  -16.2075   20.9933 C   0  0  0  0  0  0  0  0  0  0  0  0
   11.1161  -16.7475   19.6218 C   0  0  0  0  0  0  0  0  0  0  0  0
   10.4317  -17.7287   19.2985 O   0  0  0  0  0  0  0  0  0  0  0  0
    9.6506  -15.8405   22.9662 C   0  0  0  0  0  0  0  0  0  0  0  0
   10.7268  -15.6849   23.5975 O   0  0  0  0  0  0  0  0  0  0  0  0
   11.9688  -16.1398   18.7180 O   0  0  0  0  0  0  0  0  0  0  0  0
    5.9385  -12.7395   26.9319 C   0  0  0  0  0  0  0  0  0  0  0  0
    7.1984  -13.3536   26.4814 C   0  0  2  0  0  0  0  0  0  0  0  0
    8.3124  -12.3187   26.6173 C   0  0  0  0  0  0  0  0  0  0  0  0
    7.2163  -14.0037   25.1548 C   0  0  0  0  0  0  0  0  0  0  0  0
    8.4084  -14.8558   24.8451 C   0  0  2  0  0  0  0  0  0  0  0  0
    8.3951  -15.4013   23.5066 N   0  0  0  0  0  0  0  0  0  0  0  0
    8.3835  -15.9971   25.7872 C   0  0  0  0  0  0  0  0  0  0  0  0
    7.3613  -16.7158   25.9651 O   0  0  0  0  0  0  0  0  0  0  0  0
   11.4778  -18.2351   26.3005 O   0  0  0  0  0  0  0  0  0  0  0  0
   10.2533  -18.6348   26.8151 C   0  0  0  0  0  0  0  0  0  0  0  0
    9.6137  -17.4055   27.4724 C   0  0  2  0  0  0  0  0  0  0  0  0
    9.5477  -16.3100   26.5289 N   0  0  0  0  0  0  0  0  0  0  0  0
   10.3447  -17.0217   28.6947 C   0  0  0  0  0  0  0  0  0  0  0  0
   10.4486  -17.9299   29.7297 O   0  0  0  0  0  0  0  0  0  0  0  0
   10.8653  -15.9010   28.8073 O   0  0  0  0  0  0  0  0  0  0  0  0
  2  1  1  6
  2  3  1  0
  3  4  1  0
  4  5  2  0
  4  8  1  0
  6 14  1  0
  6  2  1  0
  7  6  2  0
 10  9  1  6
 10 12  1  0
 11 10  1  0
 13 12  1  1
 13 14  1  0
 13 15  1  0
 15 16  2  0
 18 17  1  0
 19 18  1  6
 20 15  1  0
 20 19  1  0
 21 19  1  0
 21 22  1  0
 23 21  2  0
M  END
$$$$
