DLS.pdb
     RDKit          3D

 23 22  0  0  1  0  0  0  0  0999 V2000
    9.9406  -17.2435   16.8497 N   0  0  0  0  0  0  0  0  0  0  0  0
   11.2032  -17.1717   17.5235 C   0  0  1  0  0  0  0  0  0  0  0  0
   12.2475  -16.4994   16.6621 C   0  0  0  0  0  0  0  0  0  0  0  0
   12.5283  -17.2692   15.4338 C   0  0  0  0  0  0  0  0  0  0  0  0
   12.1263  -18.4368   15.3298 O   0  0  0  0  0  0  0  0  0  0  0  0
   11.1116  -16.4353   18.8144 C   0  0  0  0  0  0  0  0  0  0  0  0
   12.1630  -16.2290   19.4723 O   0  0  0  0  0  0  0  0  0  0  0  0
   13.2416  -16.6639   14.4151 O   0  0  0  0  0  0  0  0  0  0  0  0
    9.0218  -12.3796   19.5371 C   0  0  0  0  0  0  0  0  0  0  0  0
    8.1236  -13.5236   19.7655 C   0  0  2  0  0  0  0  0  0  0  0  0
    6.7190  -12.9861   20.0276 C   0  0  0  0  0  0  0  0  0  0  0  0
    8.5216  -14.5256   20.7754 C   0  0  0  0  0  0  0  0  0  0  0  0
    9.8112  -15.2462   20.5286 C   0  0  2  0  0  0  0  0  0  0  0  0
    9.8336  -15.9773   19.2818 N   0  0  0  0  0  0  0  0  0  0  0  0
    9.9747  -16.2314   21.6210 C   0  0  0  0  0  0  0  0  0  0  0  0
    9.2704  -17.2746   21.7131 O   0  0  0  0  0  0  0  0  0  0  0  0
   13.4995  -16.5049   23.5984 O   0  0  0  0  0  0  0  0  0  0  0  0
   12.5810  -17.5442   23.6126 C   0  0  0  0  0  0  0  0  0  0  0  0
   11.1859  -16.9160   23.7190 C   0  0  2  0  0  0  0  0  0  0  0  0
   10.9588  -16.0094   22.6138 N   0  0  0  0  0  0  0  0  0  0  0  0
   11.0110  -16.2384   25.0174 C   0  0  0  0  0  0  0  0  0  0  0  0
   10.6740  -14.8994   25.0376 O   0  0  0  0  0  0  0  0  0  0  0  0
   11.1612  -16.8494   26.0868 O   0  0  0  0  0  0  0  0  0  0  0  0
  2  1  1  6
  2  3  1  0
  3  4  1  0
  4  5  2  0
  4  8  1  0
  6 14  1  0
  6  2  1  0
  7  6  2  0
 10  9  1  1
 10 12  1  0
 11 10  1  0
 13 12  1  1
 13 14  1  0
 13 15  1  0
 15 16  2  0
 18 17  1  0
 19 18  1  1
 20 15  1  0
 20 19  1  0
 21 19  1  0
 21 22  1  0
 23 21  2  0
M  END
$$$$
