INM.pdb
     RDKit          3D

 25 24  0  0  1  0  0  0  0  0999 V2000
    6.1243  -12.9258   20.0906 C   0  0  0  0  0  0  0  0  0  0  0  0
    7.0935  -13.9372   19.5842 C   0  0  0  0  0  0  0  0  0  0  0  0
    7.9108  -14.5723   20.6564 C   0  0  2  0  0  0  0  0  0  0  0  0
    8.5941  -13.4904   21.4520 C   0  0  0  0  0  0  0  0  0  0  0  0
    8.8656  -15.5973   20.1117 C   0  0  2  0  0  0  0  0  0  0  0  0
    8.1856  -16.4874   19.2074 N   0  0  0  0  0  0  0  0  0  0  0  0
    9.5603  -16.3461   21.1774 C   0  0  0  0  0  0  0  0  0  0  0  0
    9.1363  -17.4721   21.5321 O   0  0  0  0  0  0  0  0  0  0  0  0
   14.7044  -15.5913   24.3241 N   0  0  0  0  0  0  0  0  0  0  0  0
   13.8721  -16.5145   23.5635 C   0  0  0  0  0  0  0  0  0  0  0  0
   14.1333  -17.7050   23.7620 O   0  0  0  0  0  0  0  0  0  0  0  0
   12.8635  -15.9636   22.6879 C   0  0  0  0  0  0  0  0  0  0  0  0
   11.5172  -16.6221   22.7725 C   0  0  2  0  0  0  0  0  0  0  0  0
   10.6973  -15.8014   21.7971 N   0  0  0  0  0  0  0  0  0  0  0  0
   10.8361  -16.5055   24.0626 C   0  0  0  0  0  0  0  0  0  0  0  0
   11.4187  -17.0883   25.0629 O   0  0  0  0  0  0  0  0  0  0  0  0
    7.2254  -10.8424   26.8186 C   0  0  0  0  0  0  0  0  0  0  0  0
    6.6970  -12.5139   26.3210 S   0  0  0  0  0  0  0  0  0  0  0  0
    8.0986  -13.5737   26.1294 C   0  0  0  0  0  0  0  0  0  0  0  0
    7.9543  -15.0064   25.8126 C   0  0  0  0  0  0  0  0  0  0  0  0
    9.1114  -15.9164   25.8023 C   0  0  2  0  0  0  0  0  0  0  0  0
    9.6524  -15.8625   24.3964 N   0  0  0  0  0  0  0  0  0  0  0  0
    8.6389  -17.3776   25.7870 C   0  0  0  0  0  0  0  0  0  0  0  0
    8.5667  -17.9991   26.9040 O   0  0  0  0  0  0  0  0  0  0  0  0
    8.2899  -18.0870   24.6921 O   0  0  0  0  0  0  0  0  0  0  0  0
  2  3  1  0
  2  1  1  0
  3  5  1  0
  3  4  1  6
  5  7  1  0
  5  6  1  6
  7  8  2  0
 10  9  1  0
 11 10  2  0
 12 10  1  0
 13 12  1  1
 14 13  1  0
 14  7  1  0
 15 16  2  0
 15 13  1  0
 17 18  1  0
 19 20  1  0
 19 18  1  0
 21 20  1  6
 21 22  1  0
 21 23  1  0
 22 15  1  0
 23 24  2  0
 23 25  1  0
M  END
$$$$
