INM.pdb
     RDKit          3D

 25 24  0  0  1  0  0  0  0  0999 V2000
    5.8446  -11.7618   26.0045 C   0  0  0  0  0  0  0  0  0  0  0  0
    5.6160  -13.1353   25.4752 C   0  0  0  0  0  0  0  0  0  0  0  0
    6.8719  -13.8635   25.1384 C   0  0  2  0  0  0  0  0  0  0  0  0
    7.6409  -13.0614   24.1208 C   0  0  0  0  0  0  0  0  0  0  0  0
    6.6093  -15.2771   24.7004 C   0  0  2  0  0  0  0  0  0  0  0  0
    5.7772  -15.9545   25.6600 N   0  0  0  0  0  0  0  0  0  0  0  0
    7.8528  -16.0305   24.4448 C   0  0  0  0  0  0  0  0  0  0  0  0
    8.4040  -16.6662   25.3751 O   0  0  0  0  0  0  0  0  0  0  0  0
   11.3694  -18.5349   21.4558 N   0  0  0  0  0  0  0  0  0  0  0  0
   10.8802  -17.3545   20.7551 C   0  0  0  0  0  0  0  0  0  0  0  0
   11.3122  -17.2400   19.6039 O   0  0  0  0  0  0  0  0  0  0  0  0
    9.9734  -16.4719   21.4523 C   0  0  0  0  0  0  0  0  0  0  0  0
    9.6520  -16.8730   22.8627 C   0  0  2  0  0  0  0  0  0  0  0  0
    8.4224  -16.0383   23.1607 N   0  0  0  0  0  0  0  0  0  0  0  0
   10.6443  -16.4947   23.8696 C   0  0  0  0  0  0  0  0  0  0  0  0
   11.0378  -15.2602   23.8380 O   0  0  0  0  0  0  0  0  0  0  0  0
    9.7017  -13.5488   28.6520 C   0  0  0  0  0  0  0  0  0  0  0  0
   10.4867  -14.9752   29.4706 S   0  0  0  0  0  0  0  0  0  0  0  0
   11.5648  -15.8148   28.3494 C   0  0  0  0  0  0  0  0  0  0  0  0
   11.1103  -16.2636   27.0206 C   0  0  0  0  0  0  0  0  0  0  0  0
   12.0634  -16.5964   25.9491 C   0  0  2  0  0  0  0  0  0  0  0  0
   11.2407  -17.2509   24.8687 N   0  0  0  0  0  0  0  0  0  0  0  0
   12.9008  -17.8218   26.3435 C   0  0  0  0  0  0  0  0  0  0  0  0
   12.4296  -18.9831   26.0817 O   0  0  0  0  0  0  0  0  0  0  0  0
   14.1049  -17.7964   26.9545 O   0  0  0  0  0  0  0  0  0  0  0  0
  2  3  1  0
  2  1  1  0
  3  5  1  0
  3  4  1  6
  5  7  1  0
  5  6  1  1
  7  8  2  0
 10  9  1  0
 11 10  2  0
 12 10  1  0
 13 12  1  6
 14 13  1  0
 14  7  1  0
 15 16  2  0
 15 13  1  0
 17 18  1  0
 19 20  1  0
 19 18  1  0
 21 20  1  1
 21 22  1  0
 21 23  1  0
 22 15  1  0
 23 24  2  0
 23 25  1  0
M  END
$$$$
