INM.pdb
     RDKit          3D

 25 24  0  0  1  0  0  0  0  0999 V2000
    7.7194  -12.2630   17.6966 C   0  0  0  0  0  0  0  0  0  0  0  0
    8.5032  -12.3713   18.9586 C   0  0  0  0  0  0  0  0  0  0  0  0
    8.1168  -13.5355   19.8050 C   0  0  2  0  0  0  0  0  0  0  0  0
    6.6756  -13.3804   20.2164 C   0  0  0  0  0  0  0  0  0  0  0  0
    9.0467  -13.7244   20.9706 C   0  0  2  0  0  0  0  0  0  0  0  0
   10.4156  -13.5741   20.5512 N   0  0  0  0  0  0  0  0  0  0  0  0
    8.8368  -15.0134   21.6587 C   0  0  0  0  0  0  0  0  0  0  0  0
    7.6779  -15.3748   21.9748 O   0  0  0  0  0  0  0  0  0  0  0  0
   11.8729  -18.1724   19.8902 N   0  0  0  0  0  0  0  0  0  0  0  0
   10.7572  -18.4138   20.7960 C   0  0  0  0  0  0  0  0  0  0  0  0
    9.7982  -18.9859   20.2688 O   0  0  0  0  0  0  0  0  0  0  0  0
   10.8824  -17.9761   22.1672 C   0  0  0  0  0  0  0  0  0  0  0  0
    9.7343  -17.1574   22.6822 C   0  0  2  0  0  0  0  0  0  0  0  0
    9.9324  -15.8388   21.9615 N   0  0  0  0  0  0  0  0  0  0  0  0
    9.7738  -16.8409   24.1105 C   0  0  0  0  0  0  0  0  0  0  0  0
    9.6641  -17.8508   24.9154 O   0  0  0  0  0  0  0  0  0  0  0  0
    6.3041  -11.3241   26.3521 C   0  0  0  0  0  0  0  0  0  0  0  0
    6.5950  -12.9986   27.0099 S   0  0  0  0  0  0  0  0  0  0  0  0
    7.9252  -13.7791   26.1464 C   0  0  0  0  0  0  0  0  0  0  0  0
    8.4311  -15.1088   26.5335 C   0  0  0  0  0  0  0  0  0  0  0  0
    9.8172  -15.5198   26.2555 C   0  0  2  0  0  0  0  0  0  0  0  0
    9.9132  -15.6195   24.7544 N   0  0  0  0  0  0  0  0  0  0  0  0
   10.0044  -17.0102   26.5750 C   0  0  0  0  0  0  0  0  0  0  0  0
    9.7453  -17.8610   25.6539 O   0  0  0  0  0  0  0  0  0  0  0  0
   10.4183  -17.5229   27.7538 O   0  0  0  0  0  0  0  0  0  0  0  0
  2  3  1  0
  2  1  1  0
  3  5  1  0
  3  4  1  1
  5  7  1  0
  5  6  1  6
  7  8  2  0
 10  9  1  0
 11 10  2  0
 12 10  1  0
 13 12  1  1
 14 13  1  0
 14  7  1  0
 15 16  2  0
 15 13  1  0
 17 18  1  0
 19 20  1  0
 19 18  1  0
 21 20  1  6
 21 22  1  0
 21 23  1  0
 22 15  1  0
 23 24  2  0
 23 25  1  0
M  END
$$$$
