INM.pdb
     RDKit          3D

 25 24  0  0  1  0  0  0  0  0999 V2000
    7.4758  -12.4393   21.4034 C   0  0  0  0  0  0  0  0  0  0  0  0
    7.4933  -13.9240   21.2847 C   0  0  0  0  0  0  0  0  0  0  0  0
    8.2271  -14.4200   20.0862 C   0  0  2  0  0  0  0  0  0  0  0  0
    7.6364  -13.7815   18.8558 C   0  0  0  0  0  0  0  0  0  0  0  0
    8.2544  -15.9212   20.0174 C   0  0  2  0  0  0  0  0  0  0  0  0
    6.9312  -16.4381   19.7847 N   0  0  0  0  0  0  0  0  0  0  0  0
    8.8637  -16.5314   21.2155 C   0  0  0  0  0  0  0  0  0  0  0  0
    8.4135  -17.6113   21.6678 O   0  0  0  0  0  0  0  0  0  0  0  0
   12.4510  -17.8199   21.4397 N   0  0  0  0  0  0  0  0  0  0  0  0
   12.9140  -16.6322   22.1459 C   0  0  0  0  0  0  0  0  0  0  0  0
   14.0887  -16.3341   21.9089 O   0  0  0  0  0  0  0  0  0  0  0  0
   11.9861  -15.9499   23.0181 C   0  0  0  0  0  0  0  0  0  0  0  0
   10.6052  -16.5368   23.0641 C   0  0  2  0  0  0  0  0  0  0  0  0
    9.9485  -15.9061   21.8523 N   0  0  0  0  0  0  0  0  0  0  0  0
    9.7877  -16.1413   24.2116 C   0  0  0  0  0  0  0  0  0  0  0  0
   10.2079  -16.5446   25.3695 O   0  0  0  0  0  0  0  0  0  0  0  0
    7.7954  -11.6458   27.7548 C   0  0  0  0  0  0  0  0  0  0  0  0
    6.2084  -11.9050   26.8973 S   0  0  0  0  0  0  0  0  0  0  0  0
    6.0531  -13.5880   26.3800 C   0  0  0  0  0  0  0  0  0  0  0  0
    6.8865  -14.1517   25.3023 C   0  0  0  0  0  0  0  0  0  0  0  0
    7.8764  -15.2096   25.5634 C   0  0  2  0  0  0  0  0  0  0  0  0
    8.6203  -15.3929   24.2651 N   0  0  0  0  0  0  0  0  0  0  0  0
    7.1895  -16.5825   25.6045 C   0  0  0  0  0  0  0  0  0  0  0  0
    6.9373  -17.1636   24.4919 O   0  0  0  0  0  0  0  0  0  0  0  0
    6.8137  -17.2484   26.7178 O   0  0  0  0  0  0  0  0  0  0  0  0
  2  3  1  0
  2  1  1  0
  3  5  1  0
  3  4  1  6
  5  7  1  0
  5  6  1  1
  7  8  2  0
 10  9  1  0
 11 10  2  0
 12 10  1  0
 13 12  1  1
 14 13  1  0
 14  7  1  0
 15 16  2  0
 15 13  1  0
 17 18  1  0
 19 20  1  0
 19 18  1  0
 21 20  1  6
 21 22  1  0
 21 23  1  0
 22 15  1  0
 23 24  2  0
 23 25  1  0
M  END
$$$$
