HAY.pdb
     RDKit          3D

 28 29  0  0  1  0  0  0  0  0999 V2000
    7.9741  -16.8469   20.0351 N   0  0  0  0  0  0  0  0  0  0  0  0
    8.5127  -15.9490   21.0156 C   0  0  1  0  0  0  0  0  0  0  0  0
    7.6078  -14.7177   21.0382 C   0  0  0  0  0  0  0  0  0  0  0  0
    7.7818  -14.0078   19.7440 C   0  0  0  0  0  0  0  0  0  0  0  0
    8.5287  -12.8426   19.5381 C   0  0  0  0  0  0  0  0  0  0  0  0
    8.4451  -12.5083   18.2404 N   0  0  0  0  0  0  0  0  0  0  0  0
    7.6848  -13.4055   17.6287 C   0  0  0  0  0  0  0  0  0  0  0  0
    7.2750  -14.3239   18.5350 N   0  0  0  0  0  0  0  0  0  0  0  0
    8.5031  -16.5262   22.3829 C   0  0  0  0  0  0  0  0  0  0  0  0
    7.4358  -16.9850   22.8643 O   0  0  0  0  0  0  0  0  0  0  0  0
   10.3855  -18.6714   24.2935 C   0  0  0  0  0  0  0  0  0  0  0  0
    9.7347  -17.3151   24.4421 C   0  0  2  0  0  0  0  0  0  0  0  0
    9.6614  -16.5936   23.2051 N   0  0  0  0  0  0  0  0  0  0  0  0
   10.3896  -16.4959   25.4988 C   0  0  0  0  0  0  0  0  0  0  0  0
   11.4456  -15.8303   25.2554 O   0  0  0  0  0  0  0  0  0  0  0  0
    6.1819  -11.8757   24.9383 O   0  0  0  0  0  0  0  0  0  0  0  0
    6.9568  -12.5930   25.8209 C   0  0  0  0  0  0  0  0  0  0  0  0
    8.3090  -12.3879   25.8370 C   0  0  0  0  0  0  0  0  0  0  0  0
    9.0918  -13.1076   26.7234 C   0  0  0  0  0  0  0  0  0  0  0  0
    8.5197  -14.0152   27.5753 C   0  0  0  0  0  0  0  0  0  0  0  0
    9.3542  -14.7752   28.5127 C   0  0  0  0  0  0  0  0  0  0  0  0
   10.4218  -15.5944   27.8548 C   0  0  2  0  0  0  0  0  0  0  0  0
    9.8693  -16.4249   26.8038 N   0  0  0  0  0  0  0  0  0  0  0  0
   11.2105  -16.3927   28.8267 C   0  0  0  0  0  0  0  0  0  0  0  0
   11.1575  -17.6472   28.7776 O   0  0  0  0  0  0  0  0  0  0  0  0
    7.1653  -14.2017   27.5394 C   0  0  0  0  0  0  0  0  0  0  0  0
    6.3646  -13.5020   26.6708 C   0  0  0  0  0  0  0  0  0  0  0  0
   12.0114  -15.8210   29.7963 O   0  0  0  0  0  0  0  0  0  0  0  0
  2  1  1  6
  2  9  1  0
  3  2  1  0
  4  3  1  0
  5  4  2  0
  6  5  1  0
  6  7  1  0
  7  8  2  0
  8  4  1  0
  9 10  2  0
 12 11  1  6
 13  9  1  0
 13 12  1  0
 14 15  2  0
 14 12  1  0
 16 17  1  0
 17 27  2  0
 17 18  1  0
 18 19  2  0
 19 20  1  0
 20 21  1  0
 22 21  1  1
 22 23  1  0
 23 14  1  0
 24 22  1  0
 24 28  1  0
 25 24  2  0
 26 20  2  0
 27 26  1  0
M  END
$$$$
