HAY.pdb
     RDKit          3D

 28 29  0  0  1  0  0  0  0  0999 V2000
   10.0083  -18.2079   17.6462 N   0  0  0  0  0  0  0  0  0  0  0  0
    9.9619  -18.1601   19.0791 C   0  0  1  0  0  0  0  0  0  0  0  0
   11.3697  -17.8099   19.5598 C   0  0  0  0  0  0  0  0  0  0  0  0
   12.2264  -19.0067   19.3528 C   0  0  0  0  0  0  0  0  0  0  0  0
   11.8911  -20.3256   19.6789 C   0  0  0  0  0  0  0  0  0  0  0  0
   12.9193  -21.1207   19.3424 N   0  0  0  0  0  0  0  0  0  0  0  0
   13.8767  -20.3645   18.8240 C   0  0  0  0  0  0  0  0  0  0  0  0
   13.4655  -19.0746   18.8253 N   0  0  0  0  0  0  0  0  0  0  0  0
    9.0499  -17.1040   19.5847 C   0  0  0  0  0  0  0  0  0  0  0  0
    8.9754  -15.9992   18.9886 O   0  0  0  0  0  0  0  0  0  0  0  0
    5.8810  -16.9293   21.3551 C   0  0  0  0  0  0  0  0  0  0  0  0
    7.2531  -16.3205   21.1775 C   0  0  2  0  0  0  0  0  0  0  0  0
    8.2316  -17.2709   20.7357 N   0  0  0  0  0  0  0  0  0  0  0  0
    7.7123  -15.6145   22.4053 C   0  0  0  0  0  0  0  0  0  0  0  0
    6.9770  -14.7521   22.9824 O   0  0  0  0  0  0  0  0  0  0  0  0
    5.8296  -11.1340   27.3861 O   0  0  0  0  0  0  0  0  0  0  0  0
    6.4806  -12.2357   26.8796 C   0  0  0  0  0  0  0  0  0  0  0  0
    5.8435  -13.4460   26.8873 C   0  0  0  0  0  0  0  0  0  0  0  0
    6.4950  -14.5566   26.3786 C   0  0  0  0  0  0  0  0  0  0  0  0
    7.7635  -14.4457   25.8731 C   0  0  0  0  0  0  0  0  0  0  0  0
    8.4493  -15.6260   25.3353 C   0  0  0  0  0  0  0  0  0  0  0  0
    9.4215  -15.3207   24.2375 C   0  0  2  0  0  0  0  0  0  0  0  0
    8.9728  -15.8714   22.9746 N   0  0  0  0  0  0  0  0  0  0  0  0
   10.8047  -15.7509   24.5625 C   0  0  0  0  0  0  0  0  0  0  0  0
   11.2128  -16.8671   24.1543 O   0  0  0  0  0  0  0  0  0  0  0  0
    8.3785  -13.2241   25.8770 C   0  0  0  0  0  0  0  0  0  0  0  0
    7.7564  -12.1060   26.3750 C   0  0  0  0  0  0  0  0  0  0  0  0
   11.6797  -14.9778   25.3007 O   0  0  0  0  0  0  0  0  0  0  0  0
  2  1  1  6
  2  9  1  0
  3  2  1  0
  4  3  1  0
  5  4  2  0
  6  5  1  0
  6  7  1  0
  7  8  2  0
  8  4  1  0
  9 10  2  0
 12 11  1  1
 13  9  1  0
 13 12  1  0
 14 15  2  0
 14 12  1  0
 16 17  1  0
 17 27  2  0
 17 18  1  0
 18 19  2  0
 19 20  1  0
 20 21  1  0
 22 21  1  1
 22 23  1  0
 23 14  1  0
 24 22  1  0
 24 28  1  0
 25 24  2  0
 26 20  2  0
 27 26  1  0
M  END
$$$$
