HAY.pdb
     RDKit          3D

 28 29  0  0  1  0  0  0  0  0999 V2000
    8.8177  -16.9775   19.6677 N   0  0  0  0  0  0  0  0  0  0  0  0
    9.2795  -16.0952   20.7001 C   0  0  1  0  0  0  0  0  0  0  0  0
    8.1641  -15.0815   20.9529 C   0  0  0  0  0  0  0  0  0  0  0  0
    8.0301  -14.2460   19.7309 C   0  0  0  0  0  0  0  0  0  0  0  0
    8.8918  -13.2153   19.3398 C   0  0  0  0  0  0  0  0  0  0  0  0
    8.4405  -12.6997   18.1851 N   0  0  0  0  0  0  0  0  0  0  0  0
    7.3427  -13.3566   17.8381 C   0  0  0  0  0  0  0  0  0  0  0  0
    7.0830  -14.3011   18.7726 N   0  0  0  0  0  0  0  0  0  0  0  0
    9.5310  -16.8002   21.9816 C   0  0  0  0  0  0  0  0  0  0  0  0
    8.6012  -17.4330   22.5442 O   0  0  0  0  0  0  0  0  0  0  0  0
   12.4541  -18.1048   23.8889 C   0  0  0  0  0  0  0  0  0  0  0  0
   11.0741  -17.4888   23.8589 C   0  0  2  0  0  0  0  0  0  0  0  0
   10.7964  -16.8033   22.6305 N   0  0  0  0  0  0  0  0  0  0  0  0
   10.8347  -16.6014   25.0302 C   0  0  0  0  0  0  0  0  0  0  0  0
   11.3618  -15.4460   25.0990 O   0  0  0  0  0  0  0  0  0  0  0  0
    6.7103  -10.8872   25.8006 O   0  0  0  0  0  0  0  0  0  0  0  0
    7.1175  -12.1336   26.2184 C   0  0  0  0  0  0  0  0  0  0  0  0
    7.1035  -12.4241   27.5549 C   0  0  0  0  0  0  0  0  0  0  0  0
    7.5124  -13.6769   27.9791 C   0  0  0  0  0  0  0  0  0  0  0  0
    7.9265  -14.6158   27.0713 C   0  0  0  0  0  0  0  0  0  0  0  0
    8.3587  -15.9419   27.5265 C   0  0  0  0  0  0  0  0  0  0  0  0
    9.8140  -16.2197   27.3054 C   0  0  2  0  0  0  0  0  0  0  0  0
   10.0194  -17.0030   26.1039 N   0  0  0  0  0  0  0  0  0  0  0  0
   10.4623  -16.8455   28.4852 C   0  0  0  0  0  0  0  0  0  0  0  0
   10.5797  -16.1818   29.5458 O   0  0  0  0  0  0  0  0  0  0  0  0
    7.9310  -14.3003   25.7405 C   0  0  0  0  0  0  0  0  0  0  0  0
    7.5309  -13.0659   25.2916 C   0  0  0  0  0  0  0  0  0  0  0  0
   10.9505  -18.1378   28.4788 O   0  0  0  0  0  0  0  0  0  0  0  0
  2  1  1  6
  2  9  1  0
  3  2  1  0
  4  3  1  0
  5  4  2  0
  6  5  1  0
  6  7  1  0
  7  8  2  0
  8  4  1  0
  9 10  2  0
 12 11  1  6
 13  9  1  0
 13 12  1  0
 14 15  2  0
 14 12  1  0
 16 17  1  0
 17 27  2  0
 17 18  1  0
 18 19  2  0
 19 20  1  0
 20 21  1  0
 22 21  1  1
 22 23  1  0
 23 14  1  0
 24 22  1  0
 24 28  1  0
 25 24  2  0
 26 20  2  0
 27 26  1  0
M  END
$$$$
