HAY.pdb
     RDKit          3D

 28 29  0  0  1  0  0  0  0  0999 V2000
    9.6486  -19.0347   17.8235 N   0  0  0  0  0  0  0  0  0  0  0  0
    9.6054  -17.8224   18.5890 C   0  0  1  0  0  0  0  0  0  0  0  0
    8.1755  -17.2900   18.5016 C   0  0  0  0  0  0  0  0  0  0  0  0
    7.9688  -16.7807   17.1207 C   0  0  0  0  0  0  0  0  0  0  0  0
    8.5796  -15.6541   16.5587 C   0  0  0  0  0  0  0  0  0  0  0  0
    8.1413  -15.5185   15.2969 N   0  0  0  0  0  0  0  0  0  0  0  0
    7.2895  -16.5025   15.0451 C   0  0  0  0  0  0  0  0  0  0  0  0
    7.1766  -17.2778   16.1492 N   0  0  0  0  0  0  0  0  0  0  0  0
    9.9042  -18.0448   20.0256 C   0  0  0  0  0  0  0  0  0  0  0  0
    9.7033  -19.1736   20.5423 O   0  0  0  0  0  0  0  0  0  0  0  0
   12.2858  -16.7767   22.4512 C   0  0  0  0  0  0  0  0  0  0  0  0
   10.8693  -17.2513   22.2207 C   0  0  2  0  0  0  0  0  0  0  0  0
   10.4187  -17.0292   20.8777 N   0  0  0  0  0  0  0  0  0  0  0  0
    9.9185  -16.6656   23.2054 C   0  0  0  0  0  0  0  0  0  0  0  0
   10.3243  -16.2105   24.3215 O   0  0  0  0  0  0  0  0  0  0  0  0
    8.8370  -11.6686   19.4875 O   0  0  0  0  0  0  0  0  0  0  0  0
    8.2810  -12.5316   20.4040 C   0  0  0  0  0  0  0  0  0  0  0  0
    7.5760  -13.6143   19.9550 C   0  0  0  0  0  0  0  0  0  0  0  0
    7.0152  -14.4847   20.8739 C   0  0  0  0  0  0  0  0  0  0  0  0
    7.1641  -14.2651   22.2180 C   0  0  0  0  0  0  0  0  0  0  0  0
    6.5676  -15.1909   23.1874 C   0  0  0  0  0  0  0  0  0  0  0  0
    7.5597  -16.0756   23.8780 C   0  0  2  0  0  0  0  0  0  0  0  0
    8.5385  -16.5920   22.9427 N   0  0  0  0  0  0  0  0  0  0  0  0
    6.9129  -17.1651   24.6517 C   0  0  0  0  0  0  0  0  0  0  0  0
    6.0151  -16.8788   25.4830 O   0  0  0  0  0  0  0  0  0  0  0  0
    7.8736  -13.1751   22.6411 C   0  0  0  0  0  0  0  0  0  0  0  0
    8.4406  -12.2954   21.7523 C   0  0  0  0  0  0  0  0  0  0  0  0
    7.2509  -18.4964   24.5042 O   0  0  0  0  0  0  0  0  0  0  0  0
  2  1  1  6
  2  9  1  0
  3  2  1  0
  4  3  1  0
  5  4  2  0
  6  5  1  0
  6  7  1  0
  7  8  2  0
  8  4  1  0
  9 10  2  0
 12 11  1  6
 13  9  1  0
 13 12  1  0
 14 15  2  0
 14 12  1  0
 16 17  1  0
 17 27  2  0
 17 18  1  0
 18 19  2  0
 19 20  1  0
 20 21  1  0
 22 21  1  6
 22 23  1  0
 23 14  1  0
 24 22  1  0
 24 28  1  0
 25 24  2  0
 26 20  2  0
 27 26  1  0
M  END
$$$$
