HAY.pdb
     RDKit          3D

 28 29  0  0  1  0  0  0  0  0999 V2000
    6.3071  -15.7273   21.1822 N   0  0  0  0  0  0  0  0  0  0  0  0
    7.5763  -15.8260   21.8432 C   0  0  1  0  0  0  0  0  0  0  0  0
    8.1483  -14.4112   21.9250 C   0  0  0  0  0  0  0  0  0  0  0  0
    8.3855  -13.9408   20.5351 C   0  0  0  0  0  0  0  0  0  0  0  0
    8.1395  -14.6695   19.3662 C   0  0  0  0  0  0  0  0  0  0  0  0
    8.4792  -13.9096   18.3127 N   0  0  0  0  0  0  0  0  0  0  0  0
    8.9237  -12.7461   18.7661 C   0  0  0  0  0  0  0  0  0  0  0  0
    8.8712  -12.7537   20.1189 N   0  0  0  0  0  0  0  0  0  0  0  0
    7.4569  -16.3324   23.2331 C   0  0  0  0  0  0  0  0  0  0  0  0
    6.3992  -16.1373   23.8848 O   0  0  0  0  0  0  0  0  0  0  0  0
    8.7433  -19.3252   24.7679 C   0  0  0  0  0  0  0  0  0  0  0  0
    8.2980  -17.9034   25.0232 C   0  0  2  0  0  0  0  0  0  0  0  0
    8.4963  -17.0456   23.8914 N   0  0  0  0  0  0  0  0  0  0  0  0
    8.9323  -17.3316   26.2428 C   0  0  0  0  0  0  0  0  0  0  0  0
    8.8441  -17.9190   27.3673 O   0  0  0  0  0  0  0  0  0  0  0  0
    5.4720  -11.6889   25.9525 O   0  0  0  0  0  0  0  0  0  0  0  0
    6.4306  -12.4895   26.5304 C   0  0  0  0  0  0  0  0  0  0  0  0
    6.0362  -13.5626   27.2811 C   0  0  0  0  0  0  0  0  0  0  0  0
    6.9977  -14.3703   27.8641 C   0  0  0  0  0  0  0  0  0  0  0  0
    8.3294  -14.0987   27.6916 C   0  0  0  0  0  0  0  0  0  0  0  0
    9.3440  -14.9581   28.3118 C   0  0  0  0  0  0  0  0  0  0  0  0
   10.3270  -15.5402   27.3429 C   0  0  2  0  0  0  0  0  0  0  0  0
    9.6518  -16.1235   26.2012 N   0  0  0  0  0  0  0  0  0  0  0  0
   11.2567  -16.5053   27.9818 C   0  0  0  0  0  0  0  0  0  0  0  0
   11.2825  -17.6942   27.5757 O   0  0  0  0  0  0  0  0  0  0  0  0
    8.6975  -13.0196   26.9363 C   0  0  0  0  0  0  0  0  0  0  0  0
    7.7657  -12.2016   26.3465 C   0  0  0  0  0  0  0  0  0  0  0  0
   12.1074  -16.1605   29.0141 O   0  0  0  0  0  0  0  0  0  0  0  0
  2  1  1  1
  2  9  1  0
  3  2  1  0
  4  3  1  0
  5  4  2  0
  6  5  1  0
  6  7  1  0
  7  8  2  0
  8  4  1  0
  9 10  2  0
 12 11  1  6
 13  9  1  0
 13 12  1  0
 14 15  2  0
 14 12  1  0
 16 17  1  0
 17 27  2  0
 17 18  1  0
 18 19  2  0
 19 20  1  0
 20 21  1  0
 22 21  1  1
 22 23  1  0
 23 14  1  0
 24 22  1  0
 24 28  1  0
 25 24  2  0
 26 20  2  0
 27 26  1  0
M  END
$$$$
