GNY.pdb
     RDKit          3D

 25 25  0  0  1  0  0  0  0  0999 V2000
    9.5233  -18.3116   17.6971 N   0  0  0  0  0  0  0  0  0  0  0  0
    9.1289  -19.0096   18.8849 C   0  0  0  0  0  0  0  0  0  0  0  0
    8.4948  -18.1022   19.8593 C   0  0  0  0  0  0  0  0  0  0  0  0
    7.4271  -17.5184   19.5456 O   0  0  0  0  0  0  0  0  0  0  0  0
    6.2474  -18.8234   24.7631 N   0  0  0  0  0  0  0  0  0  0  0  0
    6.2143  -17.9795   23.6043 C   0  0  0  0  0  0  0  0  0  0  0  0
    5.4294  -17.0173   23.6376 O   0  0  0  0  0  0  0  0  0  0  0  0
    7.1181  -18.3522   22.5021 C   0  0  0  0  0  0  0  0  0  0  0  0
    8.2335  -17.3908   22.2706 C   0  0  2  0  0  0  0  0  0  0  0  0
    9.0521  -17.8629   21.1484 N   0  0  0  0  0  0  0  0  0  0  0  0
    9.0859  -17.2429   23.4501 C   0  0  0  0  0  0  0  0  0  0  0  0
    9.8329  -18.1175   23.9593 O   0  0  0  0  0  0  0  0  0  0  0  0
    5.0406  -11.8664   26.7549 O   0  0  0  0  0  0  0  0  0  0  0  0
    6.2760  -12.4523   26.4681 C   0  0  0  0  0  0  0  0  0  0  0  0
    7.1759  -12.7593   27.4610 C   0  0  0  0  0  0  0  0  0  0  0  0
    8.3926  -13.3373   27.1659 C   0  0  0  0  0  0  0  0  0  0  0  0
    8.7662  -13.6368   25.8464 C   0  0  0  0  0  0  0  0  0  0  0  0
   10.0764  -14.2501   25.5617 C   0  0  0  0  0  0  0  0  0  0  0  0
    9.9907  -15.7237   25.2727 C   0  0  2  0  0  0  0  0  0  0  0  0
    9.1094  -15.9786   24.1426 N   0  0  0  0  0  0  0  0  0  0  0  0
    9.5960  -16.5045   26.4610 C   0  0  0  0  0  0  0  0  0  0  0  0
   10.3012  -16.4247   27.4909 O   0  0  0  0  0  0  0  0  0  0  0  0
    7.8605  -13.3283   24.8481 C   0  0  0  0  0  0  0  0  0  0  0  0
    6.6541  -12.7514   25.1786 C   0  0  0  0  0  0  0  0  0  0  0  0
    8.4854  -17.3277   26.5120 O   0  0  0  0  0  0  0  0  0  0  0  0
  1  2  1  0
  2  3  1  0
  3 10  1  0
  4  3  2  0
  6  7  2  0
  6  5  1  0
  8  6  1  0
  9  8  1  1
  9 11  1  0
 10  9  1  0
 11 12  2  0
 11 20  1  0
 13 14  1  0
 14 15  2  0
 15 16  1  0
 17 18  1  0
 17 16  2  0
 19 18  1  1
 19 21  1  0
 20 19  1  0
 21 25  1  0
 22 21  2  0
 23 17  1  0
 24 23  2  0
 24 14  1  0
M  END
$$$$
