GNY.pdb
     RDKit          3D

 25 25  0  0  1  0  0  0  0  0999 V2000
    4.8258  -19.4310   21.4273 N   0  0  0  0  0  0  0  0  0  0  0  0
    4.9716  -18.1243   21.9970 C   0  0  0  0  0  0  0  0  0  0  0  0
    6.2048  -17.4651   21.5283 C   0  0  0  0  0  0  0  0  0  0  0  0
    7.1490  -18.1724   21.0951 O   0  0  0  0  0  0  0  0  0  0  0  0
    8.0219  -12.1504   19.2065 N   0  0  0  0  0  0  0  0  0  0  0  0
    8.3390  -13.4195   19.7935 C   0  0  0  0  0  0  0  0  0  0  0  0
    9.4554  -13.8942   19.5258 O   0  0  0  0  0  0  0  0  0  0  0  0
    7.3001  -14.0181   20.6496 C   0  0  0  0  0  0  0  0  0  0  0  0
    7.6052  -15.4033   21.1082 C   0  0  2  0  0  0  0  0  0  0  0  0
    6.3643  -16.0495   21.5494 N   0  0  0  0  0  0  0  0  0  0  0  0
    8.5660  -15.4185   22.2112 C   0  0  0  0  0  0  0  0  0  0  0  0
    9.7653  -15.0409   22.1762 O   0  0  0  0  0  0  0  0  0  0  0  0
    5.8252  -10.5910   26.4871 O   0  0  0  0  0  0  0  0  0  0  0  0
    6.4072  -11.8536   26.3492 C   0  0  0  0  0  0  0  0  0  0  0  0
    5.6612  -13.0048   26.4400 C   0  0  0  0  0  0  0  0  0  0  0  0
    6.2467  -14.2457   26.3026 C   0  0  0  0  0  0  0  0  0  0  0  0
    7.6227  -14.3899   26.0653 C   0  0  0  0  0  0  0  0  0  0  0  0
    8.2209  -15.7304   25.9279 C   0  0  0  0  0  0  0  0  0  0  0  0
    9.0185  -15.8968   24.6637 C   0  0  2  0  0  0  0  0  0  0  0  0
    8.1451  -15.9105   23.4992 N   0  0  0  0  0  0  0  0  0  0  0  0
    9.8921  -17.0853   24.7060 C   0  0  0  0  0  0  0  0  0  0  0  0
   10.7324  -17.1779   25.6277 O   0  0  0  0  0  0  0  0  0  0  0  0
    8.3725  -13.2315   25.9736 C   0  0  0  0  0  0  0  0  0  0  0  0
    7.7551  -12.0084   26.1159 C   0  0  0  0  0  0  0  0  0  0  0  0
    9.8426  -18.1152   23.7838 O   0  0  0  0  0  0  0  0  0  0  0  0
  1  2  1  0
  2  3  1  0
  3 10  1  0
  4  3  2  0
  6  7  2  0
  6  5  1  0
  8  6  1  0
  9  8  1  1
  9 11  1  0
 10  9  1  0
 11 12  2  0
 11 20  1  0
 13 14  1  0
 14 15  2  0
 15 16  1  0
 17 18  1  0
 17 16  2  0
 19 18  1  1
 19 21  1  0
 20 19  1  0
 21 25  1  0
 22 21  2  0
 23 17  1  0
 24 23  2  0
 24 14  1  0
M  END
$$$$
