GNY.pdb
     RDKit          3D

 25 25  0  0  1  0  0  0  0  0999 V2000
   15.6998  -13.1865   17.5747 N   0  0  0  0  0  0  0  0  0  0  0  0
   14.5819  -14.0110   17.2231 C   0  0  0  0  0  0  0  0  0  0  0  0
   13.6102  -14.1040   18.3286 C   0  0  0  0  0  0  0  0  0  0  0  0
   13.9635  -13.7564   19.4835 O   0  0  0  0  0  0  0  0  0  0  0  0
    8.9585  -12.7236   18.5377 N   0  0  0  0  0  0  0  0  0  0  0  0
    9.0515  -13.9469   19.2796 C   0  0  0  0  0  0  0  0  0  0  0  0
    8.3423  -14.0381   20.2955 O   0  0  0  0  0  0  0  0  0  0  0  0
    9.9817  -14.9596   18.7507 C   0  0  0  0  0  0  0  0  0  0  0  0
   11.3775  -14.8368   19.2595 C   0  0  2  0  0  0  0  0  0  0  0  0
   12.2802  -14.5758   18.1329 N   0  0  0  0  0  0  0  0  0  0  0  0
   11.8195  -16.0478   19.9508 C   0  0  0  0  0  0  0  0  0  0  0  0
   12.4133  -17.0346   19.4451 O   0  0  0  0  0  0  0  0  0  0  0  0
   18.4109  -17.4557   24.9742 O   0  0  0  0  0  0  0  0  0  0  0  0
   17.2765  -17.0054   24.2945 C   0  0  0  0  0  0  0  0  0  0  0  0
   17.0343  -17.3536   22.9868 C   0  0  0  0  0  0  0  0  0  0  0  0
   15.9112  -16.9027   22.3259 C   0  0  0  0  0  0  0  0  0  0  0  0
   14.9694  -16.0725   22.9537 C   0  0  0  0  0  0  0  0  0  0  0  0
   13.7807  -15.6022   22.2193 C   0  0  0  0  0  0  0  0  0  0  0  0
   12.6153  -16.5486   22.3097 C   0  0  2  0  0  0  0  0  0  0  0  0
   11.5721  -16.1760   21.3652 N   0  0  0  0  0  0  0  0  0  0  0  0
   12.0926  -16.6622   23.6849 C   0  0  0  0  0  0  0  0  0  0  0  0
   11.1856  -15.8807   24.0469 O   0  0  0  0  0  0  0  0  0  0  0  0
   15.2133  -15.7230   24.2692 C   0  0  0  0  0  0  0  0  0  0  0  0
   16.3453  -16.1913   24.8990 C   0  0  0  0  0  0  0  0  0  0  0  0
   12.5439  -17.5860   24.6105 O   0  0  0  0  0  0  0  0  0  0  0  0
  1  2  1  0
  2  3  1  0
  3 10  1  0
  4  3  2  0
  6  7  2  0
  6  5  1  0
  8  6  1  0
  9  8  1  6
  9 11  1  0
 10  9  1  0
 11 12  2  0
 11 20  1  0
 13 14  1  0
 14 15  2  0
 15 16  1  0
 17 18  1  0
 17 16  2  0
 19 18  1  1
 19 21  1  0
 20 19  1  0
 21 25  1  0
 22 21  2  0
 23 17  1  0
 24 23  2  0
 24 14  1  0
M  END
$$$$
