GNY.pdb
     RDKit          3D

 25 25  0  0  1  0  0  0  0  0999 V2000
    6.6332  -21.5540   25.0503 N   0  0  0  0  0  0  0  0  0  0  0  0
    6.2314  -20.3491   24.3869 C   0  0  0  0  0  0  0  0  0  0  0  0
    7.0322  -20.1083   23.1721 C   0  0  0  0  0  0  0  0  0  0  0  0
    7.9991  -20.8695   22.9168 O   0  0  0  0  0  0  0  0  0  0  0  0
    7.1806  -18.8897   17.6957 N   0  0  0  0  0  0  0  0  0  0  0  0
    7.4826  -17.9703   18.7536 C   0  0  0  0  0  0  0  0  0  0  0  0
    8.3195  -17.0872   18.5028 O   0  0  0  0  0  0  0  0  0  0  0  0
    6.7635  -18.1793   20.0224 C   0  0  0  0  0  0  0  0  0  0  0  0
    7.5993  -18.7544   21.1145 C   0  0  2  0  0  0  0  0  0  0  0  0
    6.7477  -19.0391   22.2746 N   0  0  0  0  0  0  0  0  0  0  0  0
    8.6703  -17.8460   21.5239 C   0  0  0  0  0  0  0  0  0  0  0  0
    9.7441  -17.6160   20.9106 O   0  0  0  0  0  0  0  0  0  0  0  0
    7.0386  -12.6461   18.3475 O   0  0  0  0  0  0  0  0  0  0  0  0
    7.4829  -13.1673   19.5651 C   0  0  0  0  0  0  0  0  0  0  0  0
    6.6024  -13.6073   20.5249 C   0  0  0  0  0  0  0  0  0  0  0  0
    7.0526  -14.1195   21.7234 C   0  0  0  0  0  0  0  0  0  0  0  0
    8.4219  -14.2148   22.0170 C   0  0  0  0  0  0  0  0  0  0  0  0
    8.8727  -14.7625   23.3095 C   0  0  0  0  0  0  0  0  0  0  0  0
    9.5072  -16.1207   23.1887 C   0  0  2  0  0  0  0  0  0  0  0  0
    8.5316  -17.1107   22.7561 N   0  0  0  0  0  0  0  0  0  0  0  0
   10.1893  -16.5318   24.4310 C   0  0  0  0  0  0  0  0  0  0  0  0
    9.7229  -17.4944   25.0794 O   0  0  0  0  0  0  0  0  0  0  0  0
    9.3071  -13.7726   21.0510 C   0  0  0  0  0  0  0  0  0  0  0  0
    8.8228  -13.2665   19.8650 C   0  0  0  0  0  0  0  0  0  0  0  0
   11.3227  -15.9165   24.9316 O   0  0  0  0  0  0  0  0  0  0  0  0
  1  2  1  0
  2  3  1  0
  3 10  1  0
  4  3  2  0
  6  7  2  0
  6  5  1  0
  8  6  1  0
  9  8  1  6
  9 11  1  0
 10  9  1  0
 11 12  2  0
 11 20  1  0
 13 14  1  0
 14 15  2  0
 15 16  1  0
 17 18  1  0
 17 16  2  0
 19 18  1  1
 19 21  1  0
 20 19  1  0
 21 25  1  0
 22 21  2  0
 23 17  1  0
 24 23  2  0
 24 14  1  0
M  END
$$$$
