GNY.pdb
     RDKit          3D

 25 25  0  0  1  0  0  0  0  0999 V2000
    8.7934  -16.1482   15.7005 N   0  0  0  0  0  0  0  0  0  0  0  0
    9.8899  -16.6514   16.4737 C   0  0  0  0  0  0  0  0  0  0  0  0
    9.4530  -17.0814   17.8150 C   0  0  0  0  0  0  0  0  0  0  0  0
    8.3638  -16.6502   18.2702 O   0  0  0  0  0  0  0  0  0  0  0  0
    8.6121  -21.4705   20.2667 N   0  0  0  0  0  0  0  0  0  0  0  0
    9.6642  -20.7978   19.5622 C   0  0  0  0  0  0  0  0  0  0  0  0
    9.9091  -21.1973   18.4118 O   0  0  0  0  0  0  0  0  0  0  0  0
   10.3377  -19.7058   20.2866 C   0  0  0  0  0  0  0  0  0  0  0  0
    9.8135  -18.3460   19.9735 C   0  0  2  0  0  0  0  0  0  0  0  0
   10.2248  -17.9713   18.6161 N   0  0  0  0  0  0  0  0  0  0  0  0
   10.3037  -17.3377   20.9131 C   0  0  0  0  0  0  0  0  0  0  0  0
   11.4624  -16.8513   20.9656 O   0  0  0  0  0  0  0  0  0  0  0  0
    7.3286  -12.8517   17.4899 O   0  0  0  0  0  0  0  0  0  0  0  0
    7.6521  -13.2940   18.7750 C   0  0  0  0  0  0  0  0  0  0  0  0
    6.7749  -14.0452   19.5207 C   0  0  0  0  0  0  0  0  0  0  0  0
    7.1050  -14.4760   20.7884 C   0  0  0  0  0  0  0  0  0  0  0  0
    8.3441  -14.1692   21.3723 C   0  0  0  0  0  0  0  0  0  0  0  0
    8.6664  -14.6397   22.7318 C   0  0  0  0  0  0  0  0  0  0  0  0
    9.7512  -15.6813   22.7569 C   0  0  2  0  0  0  0  0  0  0  0  0
    9.4027  -16.8112   21.9078 N   0  0  0  0  0  0  0  0  0  0  0  0
   10.0828  -16.1104   24.1292 C   0  0  0  0  0  0  0  0  0  0  0  0
    9.7697  -17.2674   24.4866 O   0  0  0  0  0  0  0  0  0  0  0  0
    9.2263  -13.4140   20.6215 C   0  0  0  0  0  0  0  0  0  0  0  0
    8.8638  -13.0003   19.3586 C   0  0  0  0  0  0  0  0  0  0  0  0
   10.7242  -15.3092   25.0568 O   0  0  0  0  0  0  0  0  0  0  0  0
  1  2  1  0
  2  3  1  0
  3 10  1  0
  4  3  2  0
  6  7  2  0
  6  5  1  0
  8  6  1  0
  9  8  1  1
  9 11  1  0
 10  9  1  0
 11 12  2  0
 11 20  1  0
 13 14  1  0
 14 15  2  0
 15 16  1  0
 17 18  1  0
 17 16  2  0
 19 18  1  1
 19 21  1  0
 20 19  1  0
 21 25  1  0
 22 21  2  0
 23 17  1  0
 24 23  2  0
 24 14  1  0
M  END
$$$$
