GNY.pdb
     RDKit          3D

 25 25  0  0  1  0  0  0  0  0999 V2000
    8.4823  -17.2522   15.5906 N   0  0  0  0  0  0  0  0  0  0  0  0
    9.0088  -18.2337   16.4923 C   0  0  0  0  0  0  0  0  0  0  0  0
    8.5038  -18.0339   17.8634 C   0  0  0  0  0  0  0  0  0  0  0  0
    7.9079  -16.9638   18.1452 O   0  0  0  0  0  0  0  0  0  0  0  0
    6.9907  -22.0044   19.8798 N   0  0  0  0  0  0  0  0  0  0  0  0
    6.8167  -20.7540   20.5594 C   0  0  0  0  0  0  0  0  0  0  0  0
    5.6473  -20.3755   20.7398 O   0  0  0  0  0  0  0  0  0  0  0  0
    8.0495  -20.0579   20.9671 C   0  0  0  0  0  0  0  0  0  0  0  0
    8.2785  -18.7579   20.2745 C   0  0  2  0  0  0  0  0  0  0  0  0
    8.6683  -19.0144   18.8837 N   0  0  0  0  0  0  0  0  0  0  0  0
    9.3246  -17.9665   20.9220 C   0  0  0  0  0  0  0  0  0  0  0  0
   10.5680  -18.0984   20.7855 O   0  0  0  0  0  0  0  0  0  0  0  0
    7.3363  -12.6351   17.5599 O   0  0  0  0  0  0  0  0  0  0  0  0
    7.8324  -13.1159   18.7741 C   0  0  0  0  0  0  0  0  0  0  0  0
    9.1821  -13.1748   19.0285 C   0  0  0  0  0  0  0  0  0  0  0  0
    9.6603  -13.6518   20.2308 C   0  0  0  0  0  0  0  0  0  0  0  0
    8.7965  -14.0965   21.2439 C   0  0  0  0  0  0  0  0  0  0  0  0
    9.3378  -14.6060   22.5171 C   0  0  0  0  0  0  0  0  0  0  0  0
    9.9140  -15.9907   22.4043 C   0  0  2  0  0  0  0  0  0  0  0  0
    8.9443  -16.9086   21.8246 N   0  0  0  0  0  0  0  0  0  0  0  0
   10.4339  -16.4867   23.6931 C   0  0  0  0  0  0  0  0  0  0  0  0
   11.4469  -15.9385   24.1807 O   0  0  0  0  0  0  0  0  0  0  0  0
    7.4389  -14.0365   20.9877 C   0  0  0  0  0  0  0  0  0  0  0  0
    6.9960  -13.5544   19.7757 C   0  0  0  0  0  0  0  0  0  0  0  0
    9.8690  -17.5292   24.4057 O   0  0  0  0  0  0  0  0  0  0  0  0
  1  2  1  0
  2  3  1  0
  3 10  1  0
  4  3  2  0
  6  7  2  0
  6  5  1  0
  8  6  1  0
  9  8  1  1
  9 11  1  0
 10  9  1  0
 11 12  2  0
 11 20  1  0
 13 14  1  0
 14 15  2  0
 15 16  1  0
 17 18  1  0
 17 16  2  0
 19 18  1  1
 19 21  1  0
 20 19  1  0
 21 25  1  0
 22 21  2  0
 23 17  1  0
 24 23  2  0
 24 14  1  0
M  END
$$$$
