GNY.pdb
     RDKit          3D

 25 25  0  0  1  0  0  0  0  0999 V2000
    8.3240  -18.6611   17.7863 N   0  0  0  0  0  0  0  0  0  0  0  0
    8.3057  -19.4183   19.0027 C   0  0  0  0  0  0  0  0  0  0  0  0
    7.6776  -18.6609   20.1012 C   0  0  0  0  0  0  0  0  0  0  0  0
    7.7344  -17.4055   20.0884 O   0  0  0  0  0  0  0  0  0  0  0  0
    3.7439  -20.5213   21.3294 N   0  0  0  0  0  0  0  0  0  0  0  0
    4.0470  -19.3123   22.0382 C   0  0  0  0  0  0  0  0  0  0  0  0
    3.2515  -18.3688   21.8968 O   0  0  0  0  0  0  0  0  0  0  0  0
    5.2727  -19.3272   22.8556 C   0  0  0  0  0  0  0  0  0  0  0  0
    6.4037  -18.5443   22.2812 C   0  0  2  0  0  0  0  0  0  0  0  0
    7.0064  -19.3044   21.1806 N   0  0  0  0  0  0  0  0  0  0  0  0
    7.4344  -18.2547   23.2778 C   0  0  0  0  0  0  0  0  0  0  0  0
    8.3822  -19.0043   23.6271 O   0  0  0  0  0  0  0  0  0  0  0  0
   10.9187  -14.0097   30.3353 O   0  0  0  0  0  0  0  0  0  0  0  0
   10.2236  -14.3137   29.1622 C   0  0  0  0  0  0  0  0  0  0  0  0
    8.9802  -13.7870   28.9043 C   0  0  0  0  0  0  0  0  0  0  0  0
    8.3032  -14.0946   27.7429 C   0  0  0  0  0  0  0  0  0  0  0  0
    8.8489  -14.9543   26.7767 C   0  0  0  0  0  0  0  0  0  0  0  0
    8.0987  -15.2684   25.5470 C   0  0  0  0  0  0  0  0  0  0  0  0
    8.2930  -16.6848   25.0797 C   0  0  2  0  0  0  0  0  0  0  0  0
    7.4073  -16.9876   23.9648 N   0  0  0  0  0  0  0  0  0  0  0  0
    8.1446  -17.6608   26.1765 C   0  0  0  0  0  0  0  0  0  0  0  0
    6.9944  -17.9258   26.5902 O   0  0  0  0  0  0  0  0  0  0  0  0
   10.0999  -15.4833   27.0365 C   0  0  0  0  0  0  0  0  0  0  0  0
   10.7478  -15.1548   28.2068 C   0  0  0  0  0  0  0  0  0  0  0  0
    9.2049  -18.3092   26.7840 O   0  0  0  0  0  0  0  0  0  0  0  0
  1  2  1  0
  2  3  1  0
  3 10  1  0
  4  3  2  0
  6  7  2  0
  6  5  1  0
  8  6  1  0
  9  8  1  1
  9 11  1  0
 10  9  1  0
 11 12  2  0
 11 20  1  0
 13 14  1  0
 14 15  2  0
 15 16  1  0
 17 18  1  0
 17 16  2  0
 19 18  1  1
 19 21  1  0
 20 19  1  0
 21 25  1  0
 22 21  2  0
 23 17  1  0
 24 23  2  0
 24 14  1  0
M  END
$$$$
