GNY.pdb
     RDKit          3D

 25 25  0  0  1  0  0  0  0  0999 V2000
    8.3817  -16.4481   15.9445 N   0  0  0  0  0  0  0  0  0  0  0  0
    9.5959  -16.7484   16.6438 C   0  0  0  0  0  0  0  0  0  0  0  0
    9.3332  -17.1273   18.0446 C   0  0  0  0  0  0  0  0  0  0  0  0
    8.2497  -16.7802   18.5785 O   0  0  0  0  0  0  0  0  0  0  0  0
    9.1941  -20.6272   19.1725 N   0  0  0  0  0  0  0  0  0  0  0  0
   10.3512  -20.7019   20.0158 C   0  0  0  0  0  0  0  0  0  0  0  0
   10.8372  -21.8307   20.1969 O   0  0  0  0  0  0  0  0  0  0  0  0
   10.8329  -19.4263   20.5740 C   0  0  0  0  0  0  0  0  0  0  0  0
   10.0006  -18.2440   20.2116 C   0  0  2  0  0  0  0  0  0  0  0  0
   10.2677  -17.8754   18.8170 N   0  0  0  0  0  0  0  0  0  0  0  0
   10.2793  -17.0916   21.0684 C   0  0  0  0  0  0  0  0  0  0  0  0
   11.2678  -16.3170   20.9981 O   0  0  0  0  0  0  0  0  0  0  0  0
    7.4676  -12.4050   17.8301 O   0  0  0  0  0  0  0  0  0  0  0  0
    7.6853  -12.9722   19.0881 C   0  0  0  0  0  0  0  0  0  0  0  0
    6.8568  -13.9464   19.5926 C   0  0  0  0  0  0  0  0  0  0  0  0
    7.0814  -14.4988   20.8359 C   0  0  0  0  0  0  0  0  0  0  0  0
    8.1594  -14.0944   21.6389 C   0  0  0  0  0  0  0  0  0  0  0  0
    8.3707  -14.7000   22.9664 C   0  0  0  0  0  0  0  0  0  0  0  0
    9.5529  -15.6286   23.0128 C   0  0  2  0  0  0  0  0  0  0  0  0
    9.3537  -16.7642   22.1241 N   0  0  0  0  0  0  0  0  0  0  0  0
    9.8719  -16.0596   24.3876 C   0  0  0  0  0  0  0  0  0  0  0  0
    9.6421  -17.2457   24.7114 O   0  0  0  0  0  0  0  0  0  0  0  0
    8.9927  -13.1148   21.1308 C   0  0  0  0  0  0  0  0  0  0  0  0
    8.7389  -12.5847   19.8850 C   0  0  0  0  0  0  0  0  0  0  0  0
   10.4142  -15.2299   25.3525 O   0  0  0  0  0  0  0  0  0  0  0  0
  1  2  1  0
  2  3  1  0
  3 10  1  0
  4  3  2  0
  6  7  2  0
  6  5  1  0
  8  6  1  0
  9  8  1  1
  9 11  1  0
 10  9  1  0
 11 12  2  0
 11 20  1  0
 13 14  1  0
 14 15  2  0
 15 16  1  0
 17 18  1  0
 17 16  2  0
 19 18  1  1
 19 21  1  0
 20 19  1  0
 21 25  1  0
 22 21  2  0
 23 17  1  0
 24 23  2  0
 24 14  1  0
M  END
$$$$
