GNY.pdb
     RDKit          3D

 25 25  0  0  1  0  0  0  0  0999 V2000
   11.1640  -16.6948   17.2774 N   0  0  0  0  0  0  0  0  0  0  0  0
   11.8018  -16.5806   18.5555 C   0  0  0  0  0  0  0  0  0  0  0  0
   10.9592  -17.1354   19.6313 C   0  0  0  0  0  0  0  0  0  0  0  0
    9.7094  -17.1130   19.5016 O   0  0  0  0  0  0  0  0  0  0  0  0
   12.6232  -21.0096   21.5513 N   0  0  0  0  0  0  0  0  0  0  0  0
   11.3385  -20.5050   21.9395 C   0  0  0  0  0  0  0  0  0  0  0  0
   10.3516  -21.1896   21.6225 O   0  0  0  0  0  0  0  0  0  0  0  0
   11.3358  -19.2268   22.6721 C   0  0  0  0  0  0  0  0  0  0  0  0
   10.6731  -18.1051   21.9478 C   0  0  2  0  0  0  0  0  0  0  0  0
   11.5140  -17.6976   20.8169 N   0  0  0  0  0  0  0  0  0  0  0  0
   10.4491  -16.9474   22.8135 C   0  0  0  0  0  0  0  0  0  0  0  0
   11.3112  -16.1252   23.2169 O   0  0  0  0  0  0  0  0  0  0  0  0
    5.9102  -10.7416   27.3211 O   0  0  0  0  0  0  0  0  0  0  0  0
    6.3036  -11.7625   26.4524 C   0  0  0  0  0  0  0  0  0  0  0  0
    7.0048  -11.4978   25.2999 C   0  0  0  0  0  0  0  0  0  0  0  0
    7.3876  -12.5137   24.4497 C   0  0  0  0  0  0  0  0  0  0  0  0
    7.0809  -13.8566   24.7199 C   0  0  0  0  0  0  0  0  0  0  0  0
    7.4993  -14.9206   23.7891 C   0  0  0  0  0  0  0  0  0  0  0  0
    8.8111  -15.5538   24.1638 C   0  0  2  0  0  0  0  0  0  0  0  0
    9.1144  -16.6738   23.2848 N   0  0  0  0  0  0  0  0  0  0  0  0
    8.8565  -15.9466   25.5855 C   0  0  0  0  0  0  0  0  0  0  0  0
    8.4210  -17.0735   25.9091 O   0  0  0  0  0  0  0  0  0  0  0  0
    6.3761  -14.1223   25.8796 C   0  0  0  0  0  0  0  0  0  0  0  0
    6.0095  -13.0832   26.7062 C   0  0  0  0  0  0  0  0  0  0  0  0
    9.3543  -15.1424   26.5950 O   0  0  0  0  0  0  0  0  0  0  0  0
  1  2  1  0
  2  3  1  0
  3 10  1  0
  4  3  2  0
  6  7  2  0
  6  5  1  0
  8  6  1  0
  9  8  1  1
  9 11  1  0
 10  9  1  0
 11 12  2  0
 11 20  1  0
 13 14  1  0
 14 15  2  0
 15 16  1  0
 17 18  1  0
 17 16  2  0
 19 18  1  6
 19 21  1  0
 20 19  1  0
 21 25  1  0
 22 21  2  0
 23 17  1  0
 24 23  2  0
 24 14  1  0
M  END
$$$$
