GNY.pdb
     RDKit          3D

 25 25  0  0  1  0  0  0  0  0999 V2000
   10.7690  -18.2449   29.9042 N   0  0  0  0  0  0  0  0  0  0  0  0
   11.8760  -18.8628   30.5721 C   0  0  0  0  0  0  0  0  0  0  0  0
   11.6344  -18.9811   32.0221 C   0  0  0  0  0  0  0  0  0  0  0  0
   10.4746  -18.7883   32.4661 O   0  0  0  0  0  0  0  0  0  0  0  0
   14.3275  -22.4044   33.8184 N   0  0  0  0  0  0  0  0  0  0  0  0
   13.1938  -21.8073   34.4619 C   0  0  0  0  0  0  0  0  0  0  0  0
   12.1681  -22.5033   34.5427 O   0  0  0  0  0  0  0  0  0  0  0  0
   13.3757  -20.4309   34.9549 C   0  0  0  0  0  0  0  0  0  0  0  0
   12.4206  -19.4413   34.3799 C   0  0  2  0  0  0  0  0  0  0  0  0
   12.6732  -19.3071   32.9410 N   0  0  0  0  0  0  0  0  0  0  0  0
   12.5463  -18.1263   35.0081 C   0  0  0  0  0  0  0  0  0  0  0  0
   13.3119  -17.1909   34.6604 O   0  0  0  0  0  0  0  0  0  0  0  0
   10.5447  -11.3788   40.4921 O   0  0  0  0  0  0  0  0  0  0  0  0
   10.5161  -12.5311   39.7028 C   0  0  0  0  0  0  0  0  0  0  0  0
   10.2524  -13.7679   40.2423 C   0  0  0  0  0  0  0  0  0  0  0  0
   10.2272  -14.8985   39.4533 C   0  0  0  0  0  0  0  0  0  0  0  0
   10.4681  -14.8394   38.0716 C   0  0  0  0  0  0  0  0  0  0  0  0
   10.4394  -16.0665   37.2549 C   0  0  0  0  0  0  0  0  0  0  0  0
   11.8078  -16.5402   36.8487 C   0  0  2  0  0  0  0  0  0  0  0  0
   11.7279  -17.8170   36.1539 N   0  0  0  0  0  0  0  0  0  0  0  0
   12.7418  -16.5962   37.9898 C   0  0  0  0  0  0  0  0  0  0  0  0
   12.8332  -17.6629   38.6365 O   0  0  0  0  0  0  0  0  0  0  0  0
   10.7327  -13.5951   37.5295 C   0  0  0  0  0  0  0  0  0  0  0  0
   10.7502  -12.4865   38.3469 C   0  0  0  0  0  0  0  0  0  0  0  0
   13.5317  -15.5357   38.3960 O   0  0  0  0  0  0  0  0  0  0  0  0
  1  2  1  0
  2  3  1  0
  3 10  1  0
  4  3  2  0
  6  7  2  0
  6  5  1  0
  8  6  1  0
  9  8  1  1
  9 11  1  0
 10  9  1  0
 11 12  2  0
 11 20  1  0
 13 14  1  0
 14 15  2  0
 15 16  1  0
 17 18  1  0
 17 16  2  0
 19 18  1  1
 19 21  1  0
 20 19  1  0
 21 25  1  0
 22 21  2  0
 23 17  1  0
 24 23  2  0
 24 14  1  0
M  END
$$$$
