IHQ.pdb
     RDKit          3D

 28 28  0  0  1  0  0  0  0  0999 V2000
    8.0437  -12.0173   20.7955 C   0  0  0  0  0  0  0  0  0  0  0  0
    7.8967  -13.4475   20.3202 C   0  0  0  0  0  0  0  0  0  0  0  0
    8.8926  -13.6923   19.2134 C   0  0  2  0  0  0  0  0  0  0  0  0
    8.6151  -12.7705   18.0456 C   0  0  0  0  0  0  0  0  0  0  0  0
    8.8493  -15.1053   18.7000 C   0  0  2  0  0  0  0  0  0  0  0  0
    7.6054  -15.4474   18.0916 N   0  0  0  0  0  0  0  0  0  0  0  0
    9.1856  -16.0996   19.7578 C   0  0  0  0  0  0  0  0  0  0  0  0
    8.2607  -16.7409   20.3471 O   0  0  0  0  0  0  0  0  0  0  0  0
   10.5147  -16.3696   20.1458 N   0  0  0  0  0  0  0  0  0  0  0  0
   10.8790  -17.1758   21.2880 C   0  0  1  0  0  0  0  0  0  0  0  0
   12.2437  -17.7962   21.1261 C   0  0  0  0  0  0  0  0  0  0  0  0
   12.6462  -18.6459   22.2661 C   0  0  0  0  0  0  0  0  0  0  0  0
   12.0344  -19.8338   22.6043 C   0  0  0  0  0  0  0  0  0  0  0  0
   12.6609  -20.3239   23.6918 N   0  0  0  0  0  0  0  0  0  0  0  0
   13.6463  -19.4790   24.0448 C   0  0  0  0  0  0  0  0  0  0  0  0
   13.6131  -18.4587   23.1517 N   0  0  0  0  0  0  0  0  0  0  0  0
   10.7213  -16.4110   22.5285 C   0  0  0  0  0  0  0  0  0  0  0  0
   11.0074  -15.1987   22.6571 O   0  0  0  0  0  0  0  0  0  0  0  0
    6.1578  -13.3467   26.2374 N   0  0  0  0  0  0  0  0  0  0  0  0
    6.5804  -14.6902   25.9190 C   0  0  0  0  0  0  0  0  0  0  0  0
    5.6704  -15.4607   25.5623 O   0  0  0  0  0  0  0  0  0  0  0  0
    8.0081  -15.0778   26.0252 C   0  0  0  0  0  0  0  0  0  0  0  0
    8.4997  -15.8274   24.8309 C   0  0  0  0  0  0  0  0  0  0  0  0
    9.9137  -16.3038   24.9037 C   0  0  2  0  0  0  0  0  0  0  0  0
   10.2108  -17.0630   23.6822 N   0  0  0  0  0  0  0  0  0  0  0  0
   10.1015  -17.1736   26.0818 C   0  0  0  0  0  0  0  0  0  0  0  0
   10.6395  -16.5994   27.2411 O   0  0  0  0  0  0  0  0  0  0  0  0
    9.8120  -18.3856   26.1109 O   0  0  0  0  0  0  0  0  0  0  0  0
  1  2  1  0
  3  2  1  0
  3  4  1  6
  5  3  1  0
  5  6  1  1
  7  5  1  0
  8  7  2  0
  9  7  1  0
 10  9  1  0
 10 11  1  6
 11 12  1  0
 12 13  2  0
 12 16  1  0
 13 14  1  0
 14 15  1  0
 16 15  2  0
 17 18  2  0
 17 10  1  0
 20 19  1  0
 21 20  2  0
 22 20  1  0
 24 23  1  6
 23 22  1  0
 24 25  1  0
 25 17  1  0
 26 24  1  0
 27 26  1  0
 28 26  2  0
M  END
$$$$
