IHQ.pdb
     RDKit          3D

 28 28  0  0  1  0  0  0  0  0999 V2000
    6.2965  -11.2830   27.1781 C   0  0  0  0  0  0  0  0  0  0  0  0
    5.5780  -12.4382   26.5131 C   0  0  0  0  0  0  0  0  0  0  0  0
    6.6066  -13.3612   25.9076 C   0  0  2  0  0  0  0  0  0  0  0  0
    7.4480  -12.6154   24.8945 C   0  0  0  0  0  0  0  0  0  0  0  0
    5.9851  -14.5380   25.2069 C   0  0  2  0  0  0  0  0  0  0  0  0
    5.1802  -15.3452   26.0642 N   0  0  0  0  0  0  0  0  0  0  0  0
    7.0004  -15.3854   24.5204 C   0  0  0  0  0  0  0  0  0  0  0  0
    7.5547  -16.3454   25.1412 O   0  0  0  0  0  0  0  0  0  0  0  0
    7.3853  -15.1677   23.1808 N   0  0  0  0  0  0  0  0  0  0  0  0
    8.4368  -15.8964   22.5097 C   0  0  1  0  0  0  0  0  0  0  0  0
    8.3728  -15.7251   21.0130 C   0  0  0  0  0  0  0  0  0  0  0  0
    9.4013  -16.4970   20.2847 C   0  0  0  0  0  0  0  0  0  0  0  0
   10.5968  -15.9738   19.8414 C   0  0  0  0  0  0  0  0  0  0  0  0
   11.2726  -16.9607   19.2209 N   0  0  0  0  0  0  0  0  0  0  0  0
   10.5364  -18.0857   19.2623 C   0  0  0  0  0  0  0  0  0  0  0  0
    9.3935  -17.7706   19.9212 N   0  0  0  0  0  0  0  0  0  0  0  0
    9.7425  -15.5635   23.0868 C   0  0  0  0  0  0  0  0  0  0  0  0
   10.1558  -14.3980   23.2842 O   0  0  0  0  0  0  0  0  0  0  0  0
   10.8938  -14.0125   28.3657 N   0  0  0  0  0  0  0  0  0  0  0  0
   11.1805  -15.4121   28.1559 C   0  0  0  0  0  0  0  0  0  0  0  0
   10.7881  -16.1737   29.0585 O   0  0  0  0  0  0  0  0  0  0  0  0
   11.8947  -15.8620   26.9364 C   0  0  0  0  0  0  0  0  0  0  0  0
   10.9861  -16.0633   25.7686 C   0  0  0  0  0  0  0  0  0  0  0  0
   11.6575  -16.4019   24.4778 C   0  0  2  0  0  0  0  0  0  0  0  0
   10.6222  -16.6145   23.4582 N   0  0  0  0  0  0  0  0  0  0  0  0
   12.4626  -17.6306   24.6257 C   0  0  0  0  0  0  0  0  0  0  0  0
   11.9432  -18.8214   24.1009 O   0  0  0  0  0  0  0  0  0  0  0  0
   13.5744  -17.6761   25.1873 O   0  0  0  0  0  0  0  0  0  0  0  0
  1  2  1  0
  3  2  1  0
  3  4  1  6
  5  3  1  0
  5  6  1  1
  7  5  1  0
  8  7  2  0
  9  7  1  0
 10  9  1  0
 10 11  1  6
 11 12  1  0
 12 13  2  0
 12 16  1  0
 13 14  1  0
 14 15  1  0
 16 15  2  0
 17 18  2  0
 17 10  1  0
 20 19  1  0
 21 20  2  0
 22 20  1  0
 24 23  1  1
 23 22  1  0
 24 25  1  0
 25 17  1  0
 26 24  1  0
 27 26  1  0
 28 26  2  0
M  END
$$$$
