IHQ.pdb
     RDKit          3D

 28 28  0  0  1  0  0  0  0  0999 V2000
    7.9000  -11.5283   19.8817 C   0  0  0  0  0  0  0  0  0  0  0  0
    7.7042  -13.0095   19.6361 C   0  0  0  0  0  0  0  0  0  0  0  0
    8.0002  -13.7534   20.9150 C   0  0  2  0  0  0  0  0  0  0  0  0
    9.3865  -13.4072   21.4137 C   0  0  0  0  0  0  0  0  0  0  0  0
    7.9367  -15.2462   20.7425 C   0  0  2  0  0  0  0  0  0  0  0  0
    6.6607  -15.7106   20.3063 N   0  0  0  0  0  0  0  0  0  0  0  0
    8.3450  -15.9738   21.9772 C   0  0  0  0  0  0  0  0  0  0  0  0
    7.5043  -16.1695   22.9094 O   0  0  0  0  0  0  0  0  0  0  0  0
    9.6528  -16.4680   22.1654 N   0  0  0  0  0  0  0  0  0  0  0  0
   10.1040  -17.1339   23.3655 C   0  0  1  0  0  0  0  0  0  0  0  0
   11.1982  -18.1307   23.0780 C   0  0  0  0  0  0  0  0  0  0  0  0
   10.7379  -19.3114   22.3178 C   0  0  0  0  0  0  0  0  0  0  0  0
    9.4144  -19.6303   22.1035 C   0  0  0  0  0  0  0  0  0  0  0  0
    9.3770  -20.7669   21.3808 N   0  0  0  0  0  0  0  0  0  0  0  0
   10.6370  -21.1692   21.1362 C   0  0  0  0  0  0  0  0  0  0  0  0
   11.4505  -20.2565   21.7234 N   0  0  0  0  0  0  0  0  0  0  0  0
   10.4549  -16.1530   24.3968 C   0  0  0  0  0  0  0  0  0  0  0  0
   10.9812  -15.0399   24.1690 O   0  0  0  0  0  0  0  0  0  0  0  0
    7.5664  -12.2540   26.2944 N   0  0  0  0  0  0  0  0  0  0  0  0
    7.0523  -13.5952   26.4425 C   0  0  0  0  0  0  0  0  0  0  0  0
    5.8115  -13.6909   26.4282 O   0  0  0  0  0  0  0  0  0  0  0  0
    7.9761  -14.7450   26.5984 C   0  0  0  0  0  0  0  0  0  0  0  0
    9.4142  -14.3431   26.5939 C   0  0  0  0  0  0  0  0  0  0  0  0
   10.3953  -15.4493   26.8065 C   0  0  2  0  0  0  0  0  0  0  0  0
   10.1916  -16.4579   25.7585 N   0  0  0  0  0  0  0  0  0  0  0  0
   10.1912  -16.0679   28.1314 C   0  0  0  0  0  0  0  0  0  0  0  0
   10.5192  -15.3124   29.2648 O   0  0  0  0  0  0  0  0  0  0  0  0
    9.7459  -17.2190   28.3059 O   0  0  0  0  0  0  0  0  0  0  0  0
  1  2  1  0
  3  2  1  0
  3  4  1  6
  5  3  1  0
  5  6  1  1
  7  5  1  0
  8  7  2  0
  9  7  1  0
 10  9  1  0
 10 11  1  6
 11 12  1  0
 12 13  2  0
 12 16  1  0
 13 14  1  0
 14 15  1  0
 16 15  2  0
 17 18  2  0
 17 10  1  0
 20 19  1  0
 21 20  2  0
 22 20  1  0
 24 23  1  6
 23 22  1  0
 24 25  1  0
 25 17  1  0
 26 24  1  0
 27 26  1  0
 28 26  2  0
M  END
$$$$
