IHQ.pdb
     RDKit          3D

 28 28  0  0  1  0  0  0  0  0999 V2000
    6.5138  -11.1695   27.0929 C   0  0  0  0  0  0  0  0  0  0  0  0
    5.8193  -12.4092   26.5699 C   0  0  0  0  0  0  0  0  0  0  0  0
    6.8346  -13.2635   25.8515 C   0  0  2  0  0  0  0  0  0  0  0  0
    7.4672  -12.4845   24.7186 C   0  0  0  0  0  0  0  0  0  0  0  0
    6.2297  -14.5100   25.2663 C   0  0  2  0  0  0  0  0  0  0  0  0
    5.5972  -15.3408   26.2380 N   0  0  0  0  0  0  0  0  0  0  0  0
    7.2209  -15.3056   24.4885 C   0  0  0  0  0  0  0  0  0  0  0  0
    7.9808  -16.1331   25.0818 O   0  0  0  0  0  0  0  0  0  0  0  0
    7.3596  -15.1810   23.0902 N   0  0  0  0  0  0  0  0  0  0  0  0
    8.3423  -15.8920   22.3054 C   0  0  1  0  0  0  0  0  0  0  0  0
    8.0617  -15.7910   20.8274 C   0  0  0  0  0  0  0  0  0  0  0  0
    8.9769  -16.5992   19.9950 C   0  0  0  0  0  0  0  0  0  0  0  0
   10.0173  -17.3542   20.4920 C   0  0  0  0  0  0  0  0  0  0  0  0
   10.6317  -17.9453   19.4486 N   0  0  0  0  0  0  0  0  0  0  0  0
   10.0075  -17.5833   18.3134 C   0  0  0  0  0  0  0  0  0  0  0  0
    8.9962  -16.7571   18.6800 N   0  0  0  0  0  0  0  0  0  0  0  0
    9.6974  -15.4760   22.6790 C   0  0  0  0  0  0  0  0  0  0  0  0
   10.0842  -14.2865   22.7397 O   0  0  0  0  0  0  0  0  0  0  0  0
    9.7326  -15.9714   27.8482 N   0  0  0  0  0  0  0  0  0  0  0  0
   11.1689  -15.8267   27.8111 C   0  0  0  0  0  0  0  0  0  0  0  0
   11.7113  -15.6465   28.9165 O   0  0  0  0  0  0  0  0  0  0  0  0
   11.9016  -15.8946   26.5233 C   0  0  0  0  0  0  0  0  0  0  0  0
   11.0010  -16.0949   25.3492 C   0  0  0  0  0  0  0  0  0  0  0  0
   11.6822  -16.2191   24.0255 C   0  0  2  0  0  0  0  0  0  0  0  0
   10.6611  -16.4683   22.9998 N   0  0  0  0  0  0  0  0  0  0  0  0
   12.6426  -17.3403   24.0467 C   0  0  0  0  0  0  0  0  0  0  0  0
   12.1515  -18.6286   23.7971 O   0  0  0  0  0  0  0  0  0  0  0  0
   13.8619  -17.2139   24.2724 O   0  0  0  0  0  0  0  0  0  0  0  0
  1  2  1  0
  3  2  1  0
  3  4  1  6
  5  3  1  0
  5  6  1  1
  7  5  1  0
  8  7  2  0
  9  7  1  0
 10  9  1  0
 10 11  1  6
 11 12  1  0
 12 13  2  0
 12 16  1  0
 13 14  1  0
 14 15  1  0
 16 15  2  0
 17 18  2  0
 17 10  1  0
 20 19  1  0
 21 20  2  0
 22 20  1  0
 24 23  1  1
 23 22  1  0
 24 25  1  0
 25 17  1  0
 26 24  1  0
 27 26  1  0
 28 26  2  0
M  END
$$$$
