IHQ.pdb
     RDKit          3D

 28 28  0  0  1  0  0  0  0  0999 V2000
    6.7648  -10.9104   27.3778 C   0  0  0  0  0  0  0  0  0  0  0  0
    5.9854  -12.1157   26.8955 C   0  0  0  0  0  0  0  0  0  0  0  0
    6.9216  -13.0219   26.1346 C   0  0  2  0  0  0  0  0  0  0  0  0
    7.5096  -12.2902   24.9475 C   0  0  0  0  0  0  0  0  0  0  0  0
    6.2358  -14.2561   25.6160 C   0  0  2  0  0  0  0  0  0  0  0  0
    5.6326  -15.0408   26.6430 N   0  0  0  0  0  0  0  0  0  0  0  0
    7.1475  -15.1060   24.7994 C   0  0  0  0  0  0  0  0  0  0  0  0
    7.9071  -15.9528   25.3652 O   0  0  0  0  0  0  0  0  0  0  0  0
    7.2092  -15.0133   23.3930 N   0  0  0  0  0  0  0  0  0  0  0  0
    8.0770  -15.8174   22.5639 C   0  0  1  0  0  0  0  0  0  0  0  0
    7.8205  -15.5903   21.0955 C   0  0  0  0  0  0  0  0  0  0  0  0
    8.6761  -16.4095   20.2120 C   0  0  0  0  0  0  0  0  0  0  0  0
    9.6007  -17.3284   20.6593 C   0  0  0  0  0  0  0  0  0  0  0  0
   10.1918  -17.8761   19.5794 N   0  0  0  0  0  0  0  0  0  0  0  0
    9.6653  -17.3280   18.4696 C   0  0  0  0  0  0  0  0  0  0  0  0
    8.7379  -16.4316   18.8891 N   0  0  0  0  0  0  0  0  0  0  0  0
    9.4777  -15.6321   22.9543 C   0  0  0  0  0  0  0  0  0  0  0  0
   10.1575  -14.6119   22.6992 O   0  0  0  0  0  0  0  0  0  0  0  0
   10.8634  -17.8410   28.1660 N   0  0  0  0  0  0  0  0  0  0  0  0
   10.8588  -16.4143   27.9429 C   0  0  0  0  0  0  0  0  0  0  0  0
   10.5394  -15.7255   28.9291 O   0  0  0  0  0  0  0  0  0  0  0  0
   11.2157  -15.8564   26.6159 C   0  0  0  0  0  0  0  0  0  0  0  0
   11.5404  -16.9094   25.6082 C   0  0  0  0  0  0  0  0  0  0  0  0
   11.5018  -16.4718   24.1804 C   0  0  2  0  0  0  0  0  0  0  0  0
   10.1371  -16.6642   23.6729 N   0  0  0  0  0  0  0  0  0  0  0  0
   12.4445  -17.2717   23.3735 C   0  0  0  0  0  0  0  0  0  0  0  0
   13.8153  -17.1044   23.6102 O   0  0  0  0  0  0  0  0  0  0  0  0
   12.0988  -18.0861   22.4955 O   0  0  0  0  0  0  0  0  0  0  0  0
  1  2  1  0
  3  2  1  0
  3  4  1  6
  5  3  1  0
  5  6  1  1
  7  5  1  0
  8  7  2  0
  9  7  1  0
 10  9  1  0
 10 11  1  6
 11 12  1  0
 12 13  2  0
 12 16  1  0
 13 14  1  0
 14 15  1  0
 16 15  2  0
 17 18  2  0
 17 10  1  0
 20 19  1  0
 21 20  2  0
 22 20  1  0
 24 23  1  1
 23 22  1  0
 24 25  1  0
 25 17  1  0
 26 24  1  0
 27 26  1  0
 28 26  2  0
M  END
$$$$
