IHQ.pdb
     RDKit          3D

 28 28  0  0  1  0  0  0  0  0999 V2000
    7.4422  -11.6993   19.4088 C   0  0  0  0  0  0  0  0  0  0  0  0
    7.5073  -13.1685   19.0484 C   0  0  0  0  0  0  0  0  0  0  0  0
    7.9281  -13.9463   20.2709 C   0  0  2  0  0  0  0  0  0  0  0  0
    9.2784  -13.4667   20.7581 C   0  0  0  0  0  0  0  0  0  0  0  0
    8.0365  -15.4230   20.0066 C   0  0  2  0  0  0  0  0  0  0  0  0
    6.8473  -15.9873   19.4573 N   0  0  0  0  0  0  0  0  0  0  0  0
    8.4435  -16.1843   21.2212 C   0  0  0  0  0  0  0  0  0  0  0  0
    7.5879  -16.4551   22.1205 O   0  0  0  0  0  0  0  0  0  0  0  0
    9.7663  -16.6299   21.4257 N   0  0  0  0  0  0  0  0  0  0  0  0
   10.2161  -17.3201   22.6124 C   0  0  1  0  0  0  0  0  0  0  0  0
   11.4413  -18.1574   22.3456 C   0  0  0  0  0  0  0  0  0  0  0  0
   11.1842  -19.3200   21.4704 C   0  0  0  0  0  0  0  0  0  0  0  0
    9.9483  -19.9052   21.2985 C   0  0  0  0  0  0  0  0  0  0  0  0
   10.0959  -20.9332   20.4400 N   0  0  0  0  0  0  0  0  0  0  0  0
   11.3866  -21.0093   20.0692 C   0  0  0  0  0  0  0  0  0  0  0  0
   12.0303  -20.0067   20.7175 N   0  0  0  0  0  0  0  0  0  0  0  0
   10.3746  -16.3794   23.7254 C   0  0  0  0  0  0  0  0  0  0  0  0
   11.1005  -15.3594   23.6958 O   0  0  0  0  0  0  0  0  0  0  0  0
    5.9808  -13.3973   25.7791 N   0  0  0  0  0  0  0  0  0  0  0  0
    6.9650  -12.9777   26.7489 C   0  0  0  0  0  0  0  0  0  0  0  0
    6.6582  -11.9706   27.4125 O   0  0  0  0  0  0  0  0  0  0  0  0
    8.2364  -13.7251   26.9062 C   0  0  0  0  0  0  0  0  0  0  0  0
    8.4154  -14.7949   25.8799 C   0  0  0  0  0  0  0  0  0  0  0  0
    9.6605  -15.6105   26.0067 C   0  0  2  0  0  0  0  0  0  0  0  0
    9.6686  -16.6145   24.9349 N   0  0  0  0  0  0  0  0  0  0  0  0
    9.6974  -16.2893   27.3173 C   0  0  0  0  0  0  0  0  0  0  0  0
   10.2820  -15.6069   28.3923 O   0  0  0  0  0  0  0  0  0  0  0  0
    9.2419  -17.4302   27.5282 O   0  0  0  0  0  0  0  0  0  0  0  0
  1  2  1  0
  3  2  1  0
  3  4  1  6
  5  3  1  0
  5  6  1  1
  7  5  1  0
  8  7  2  0
  9  7  1  0
 10  9  1  0
 10 11  1  6
 11 12  1  0
 12 13  2  0
 12 16  1  0
 13 14  1  0
 14 15  1  0
 16 15  2  0
 17 18  2  0
 17 10  1  0
 20 19  1  0
 21 20  2  0
 22 20  1  0
 24 23  1  1
 23 22  1  0
 24 25  1  0
 25 17  1  0
 26 24  1  0
 27 26  1  0
 28 26  2  0
M  END
$$$$
