IHQ.pdb
     RDKit          3D

 28 28  0  0  1  0  0  0  0  0999 V2000
    7.4196  -12.3118   18.5115 C   0  0  0  0  0  0  0  0  0  0  0  0
    8.4882  -13.3089   18.9074 C   0  0  0  0  0  0  0  0  0  0  0  0
    8.0051  -14.0808   20.1105 C   0  0  2  0  0  0  0  0  0  0  0  0
    7.7113  -13.1361   21.2558 C   0  0  0  0  0  0  0  0  0  0  0  0
    9.0139  -15.0856   20.5949 C   0  0  2  0  0  0  0  0  0  0  0  0
    9.3799  -16.0423   19.6023 N   0  0  0  0  0  0  0  0  0  0  0  0
    8.5630  -15.7858   21.8306 C   0  0  0  0  0  0  0  0  0  0  0  0
    8.2755  -15.1184   22.8727 O   0  0  0  0  0  0  0  0  0  0  0  0
    8.4369  -17.1891   21.9006 N   0  0  0  0  0  0  0  0  0  0  0  0
    8.1410  -17.9180   23.1124 C   0  0  1  0  0  0  0  0  0  0  0  0
    7.9247  -19.3864   22.8466 C   0  0  0  0  0  0  0  0  0  0  0  0
    7.5512  -20.1568   24.0511 C   0  0  0  0  0  0  0  0  0  0  0  0
    6.3739  -19.9881   24.7476 C   0  0  0  0  0  0  0  0  0  0  0  0
    6.3807  -20.8516   25.7819 N   0  0  0  0  0  0  0  0  0  0  0  0
    7.5265  -21.5556   25.7542 C   0  0  0  0  0  0  0  0  0  0  0  0
    8.2247  -21.1074   24.6812 N   0  0  0  0  0  0  0  0  0  0  0  0
    9.1541  -17.6462   24.1363 C   0  0  0  0  0  0  0  0  0  0  0  0
   10.3829  -17.5535   23.9132 O   0  0  0  0  0  0  0  0  0  0  0  0
    9.0871  -13.3071   28.1016 N   0  0  0  0  0  0  0  0  0  0  0  0
   10.0247  -14.1575   28.7966 C   0  0  0  0  0  0  0  0  0  0  0  0
   10.7077  -13.5903   29.6687 O   0  0  0  0  0  0  0  0  0  0  0  0
   10.1307  -15.5980   28.4598 C   0  0  0  0  0  0  0  0  0  0  0  0
    9.2722  -15.9918   27.3032 C   0  0  0  0  0  0  0  0  0  0  0  0
    9.7286  -17.1908   26.5379 C   0  0  2  0  0  0  0  0  0  0  0  0
    8.7444  -17.4710   25.4846 N   0  0  0  0  0  0  0  0  0  0  0  0
    9.8376  -18.3595   27.4335 C   0  0  0  0  0  0  0  0  0  0  0  0
   11.0791  -18.6135   28.0310 O   0  0  0  0  0  0  0  0  0  0  0  0
    8.8959  -19.1342   27.6917 O   0  0  0  0  0  0  0  0  0  0  0  0
  1  2  1  0
  3  2  1  0
  3  4  1  1
  5  3  1  0
  5  6  1  6
  7  5  1  0
  8  7  2  0
  9  7  1  0
 10  9  1  0
 10 11  1  6
 11 12  1  0
 12 13  2  0
 12 16  1  0
 13 14  1  0
 14 15  1  0
 16 15  2  0
 17 18  2  0
 17 10  1  0
 20 19  1  0
 21 20  2  0
 22 20  1  0
 24 23  1  1
 23 22  1  0
 24 25  1  0
 25 17  1  0
 26 24  1  0
 27 26  1  0
 28 26  2  0
M  END
$$$$
