IHQ.pdb
     RDKit          3D

 28 28  0  0  1  0  0  0  0  0999 V2000
    6.0153  -11.5775   26.6575 C   0  0  0  0  0  0  0  0  0  0  0  0
    5.5827  -12.8061   25.8853 C   0  0  0  0  0  0  0  0  0  0  0  0
    6.8055  -13.6310   25.5679 C   0  0  2  0  0  0  0  0  0  0  0  0
    7.7958  -12.8135   24.7670 C   0  0  0  0  0  0  0  0  0  0  0  0
    6.4794  -14.8632   24.7695 C   0  0  2  0  0  0  0  0  0  0  0  0
    5.5124  -15.7033   25.3969 N   0  0  0  0  0  0  0  0  0  0  0  0
    7.6961  -15.6553   24.4336 C   0  0  0  0  0  0  0  0  0  0  0  0
    8.0905  -16.5788   25.2118 O   0  0  0  0  0  0  0  0  0  0  0  0
    8.4497  -15.4231   23.2639 N   0  0  0  0  0  0  0  0  0  0  0  0
    9.5474  -16.2547   22.8272 C   0  0  1  0  0  0  0  0  0  0  0  0
    9.8696  -16.0410   21.3698 C   0  0  0  0  0  0  0  0  0  0  0  0
    8.8637  -16.6141   20.4514 C   0  0  0  0  0  0  0  0  0  0  0  0
    7.7769  -17.3590   20.8559 C   0  0  0  0  0  0  0  0  0  0  0  0
    7.0886  -17.7144   19.7534 N   0  0  0  0  0  0  0  0  0  0  0  0
    7.7115  -17.2147   18.6710 C   0  0  0  0  0  0  0  0  0  0  0  0
    8.7975  -16.5443   19.1304 N   0  0  0  0  0  0  0  0  0  0  0  0
   10.7011  -16.0925   23.7169 C   0  0  0  0  0  0  0  0  0  0  0  0
   11.3505  -15.0304   23.8519 O   0  0  0  0  0  0  0  0  0  0  0  0
   11.2283  -14.0874   28.4892 N   0  0  0  0  0  0  0  0  0  0  0  0
   10.9190  -15.4659   28.7881 C   0  0  0  0  0  0  0  0  0  0  0  0
   10.4433  -15.6680   29.9202 O   0  0  0  0  0  0  0  0  0  0  0  0
   11.1685  -16.5302   27.7857 C   0  0  0  0  0  0  0  0  0  0  0  0
   11.7085  -16.0033   26.4971 C   0  0  0  0  0  0  0  0  0  0  0  0
   12.1723  -17.0343   25.5207 C   0  0  2  0  0  0  0  0  0  0  0  0
   11.1363  -17.1993   24.4930 N   0  0  0  0  0  0  0  0  0  0  0  0
   12.3970  -18.3234   26.2045 C   0  0  0  0  0  0  0  0  0  0  0  0
   13.5773  -18.4758   26.9439 O   0  0  0  0  0  0  0  0  0  0  0  0
   11.6040  -19.2843   26.1659 O   0  0  0  0  0  0  0  0  0  0  0  0
  1  2  1  0
  3  2  1  0
  3  4  1  6
  5  3  1  0
  5  6  1  1
  7  5  1  0
  8  7  2  0
  9  7  1  0
 10  9  1  0
 10 11  1  6
 11 12  1  0
 12 13  2  0
 12 16  1  0
 13 14  1  0
 14 15  1  0
 16 15  2  0
 17 18  2  0
 17 10  1  0
 20 19  1  0
 21 20  2  0
 22 20  1  0
 24 23  1  1
 23 22  1  0
 24 25  1  0
 25 17  1  0
 26 24  1  0
 27 26  1  0
 28 26  2  0
M  END
$$$$
