IHQ.pdb
     RDKit          3D

 28 28  0  0  1  0  0  0  0  0999 V2000
    7.4288  -11.5360   20.0681 C   0  0  0  0  0  0  0  0  0  0  0  0
    6.9411  -12.9148   19.6759 C   0  0  0  0  0  0  0  0  0  0  0  0
    8.0652  -13.9001   19.8811 C   0  0  2  0  0  0  0  0  0  0  0  0
    9.2476  -13.5350   19.0097 C   0  0  0  0  0  0  0  0  0  0  0  0
    7.6662  -15.3100   19.5419 C   0  0  2  0  0  0  0  0  0  0  0  0
    6.4771  -15.7355   20.2046 N   0  0  0  0  0  0  0  0  0  0  0  0
    8.7647  -16.2836   19.7989 C   0  0  0  0  0  0  0  0  0  0  0  0
    8.8637  -16.8485   20.9325 O   0  0  0  0  0  0  0  0  0  0  0  0
    9.7238  -16.6164   18.8194 N   0  0  0  0  0  0  0  0  0  0  0  0
   10.8692  -17.4635   19.0598 C   0  0  1  0  0  0  0  0  0  0  0  0
   11.6033  -17.7919   17.7844 C   0  0  0  0  0  0  0  0  0  0  0  0
   12.7311  -18.7276   17.9751 C   0  0  0  0  0  0  0  0  0  0  0  0
   12.7387  -19.7598   18.8883 C   0  0  0  0  0  0  0  0  0  0  0  0
   13.9239  -20.3923   18.7842 N   0  0  0  0  0  0  0  0  0  0  0  0
   14.6584  -19.7874   17.8334 C   0  0  0  0  0  0  0  0  0  0  0  0
   13.9005  -18.7695   17.3547 N   0  0  0  0  0  0  0  0  0  0  0  0
   11.7245  -16.8882   20.1021 C   0  0  0  0  0  0  0  0  0  0  0  0
   11.9805  -15.6679   20.2178 O   0  0  0  0  0  0  0  0  0  0  0  0
   10.6442  -15.1054   25.0836 N   0  0  0  0  0  0  0  0  0  0  0  0
   10.4203  -16.5243   24.9364 C   0  0  0  0  0  0  0  0  0  0  0  0
    9.5999  -17.0161   25.7326 O   0  0  0  0  0  0  0  0  0  0  0  0
   11.1406  -17.2984   23.8963 C   0  0  0  0  0  0  0  0  0  0  0  0
   12.0545  -16.4553   23.0694 C   0  0  0  0  0  0  0  0  0  0  0  0
   13.0328  -17.2016   22.2223 C   0  0  2  0  0  0  0  0  0  0  0  0
   12.3185  -17.7497   21.0621 N   0  0  0  0  0  0  0  0  0  0  0  0
   13.6407  -18.3048   22.9923 C   0  0  0  0  0  0  0  0  0  0  0  0
   14.6117  -17.9793   23.9485 O   0  0  0  0  0  0  0  0  0  0  0  0
   13.3453  -19.5069   22.8462 O   0  0  0  0  0  0  0  0  0  0  0  0
  1  2  1  0
  3  2  1  0
  3  4  1  6
  5  3  1  0
  5  6  1  1
  7  5  1  0
  8  7  2  0
  9  7  1  0
 10  9  1  0
 10 11  1  6
 11 12  1  0
 12 13  2  0
 12 16  1  0
 13 14  1  0
 14 15  1  0
 16 15  2  0
 17 18  2  0
 17 10  1  0
 20 19  1  0
 21 20  2  0
 22 20  1  0
 24 23  1  1
 23 22  1  0
 24 25  1  0
 25 17  1  0
 26 24  1  0
 27 26  1  0
 28 26  2  0
M  END
$$$$
