IHQ.pdb
     RDKit          3D

 28 28  0  0  1  0  0  0  0  0999 V2000
    6.4374  -11.0083   26.9753 C   0  0  0  0  0  0  0  0  0  0  0  0
    5.8314  -12.1348   26.1651 C   0  0  0  0  0  0  0  0  0  0  0  0
    6.9204  -13.1207   25.8207 C   0  0  2  0  0  0  0  0  0  0  0  0
    8.0119  -12.4389   25.0243 C   0  0  0  0  0  0  0  0  0  0  0  0
    6.4144  -14.2778   25.0038 C   0  0  2  0  0  0  0  0  0  0  0  0
    5.3563  -14.9956   25.6360 N   0  0  0  0  0  0  0  0  0  0  0  0
    7.5058  -15.2177   24.6218 C   0  0  0  0  0  0  0  0  0  0  0  0
    7.7993  -16.1952   25.3784 O   0  0  0  0  0  0  0  0  0  0  0  0
    8.2472  -15.0705   23.4307 N   0  0  0  0  0  0  0  0  0  0  0  0
    9.2064  -16.0366   22.9471 C   0  0  1  0  0  0  0  0  0  0  0  0
    9.6550  -15.7282   21.5410 C   0  0  0  0  0  0  0  0  0  0  0  0
    8.6597  -16.0891   20.5100 C   0  0  0  0  0  0  0  0  0  0  0  0
    7.4831  -16.7594   20.7664 C   0  0  0  0  0  0  0  0  0  0  0  0
    6.8360  -16.9171   19.5951 N   0  0  0  0  0  0  0  0  0  0  0  0
    7.5718  -16.3659   18.6132 C   0  0  0  0  0  0  0  0  0  0  0  0
    8.6852  -15.8657   19.2047 N   0  0  0  0  0  0  0  0  0  0  0  0
   10.3104  -16.1864   23.8997 C   0  0  0  0  0  0  0  0  0  0  0  0
   10.9713  -15.2356   24.3766 O   0  0  0  0  0  0  0  0  0  0  0  0
    9.7613  -20.1622   28.4006 N   0  0  0  0  0  0  0  0  0  0  0  0
   11.1371  -19.7773   28.6107 C   0  0  0  0  0  0  0  0  0  0  0  0
   11.6576  -20.2202   29.6507 O   0  0  0  0  0  0  0  0  0  0  0  0
   11.8378  -18.9137   27.6294 C   0  0  0  0  0  0  0  0  0  0  0  0
   10.9618  -18.4856   26.4984 C   0  0  0  0  0  0  0  0  0  0  0  0
   11.6275  -17.6718   25.4372 C   0  0  2  0  0  0  0  0  0  0  0  0
   10.6797  -17.4881   24.3305 N   0  0  0  0  0  0  0  0  0  0  0  0
   12.8342  -18.3636   24.9422 C   0  0  0  0  0  0  0  0  0  0  0  0
   14.0238  -18.2041   25.6650 O   0  0  0  0  0  0  0  0  0  0  0  0
   12.8621  -19.0801   23.9226 O   0  0  0  0  0  0  0  0  0  0  0  0
  1  2  1  0
  3  2  1  0
  3  4  1  6
  5  3  1  0
  5  6  1  1
  7  5  1  0
  8  7  2  0
  9  7  1  0
 10  9  1  0
 10 11  1  6
 11 12  1  0
 12 13  2  0
 12 16  1  0
 13 14  1  0
 14 15  1  0
 16 15  2  0
 17 18  2  0
 17 10  1  0
 20 19  1  0
 21 20  2  0
 22 20  1  0
 24 23  1  1
 23 22  1  0
 24 25  1  0
 25 17  1  0
 26 24  1  0
 27 26  1  0
 28 26  2  0
M  END
$$$$
