IHQ.pdb
     RDKit          3D

 28 28  0  0  1  0  0  0  0  0999 V2000
    6.9793  -12.3596   18.4655 C   0  0  0  0  0  0  0  0  0  0  0  0
    8.2095  -13.2090   18.7058 C   0  0  0  0  0  0  0  0  0  0  0  0
    8.0846  -13.8664   20.0582 C   0  0  2  0  0  0  0  0  0  0  0  0
    7.9696  -12.8168   21.1424 C   0  0  0  0  0  0  0  0  0  0  0  0
    9.2662  -14.7364   20.3885 C   0  0  2  0  0  0  0  0  0  0  0  0
    9.5881  -15.6675   19.3570 N   0  0  0  0  0  0  0  0  0  0  0  0
    9.0925  -15.4549   21.6824 C   0  0  0  0  0  0  0  0  0  0  0  0
    8.0725  -15.2288   22.4053 O   0  0  0  0  0  0  0  0  0  0  0  0
   10.0295  -16.3976   22.1550 N   0  0  0  0  0  0  0  0  0  0  0  0
    9.8948  -17.1238   23.3966 C   0  0  1  0  0  0  0  0  0  0  0  0
   10.7236  -18.3834   23.4040 C   0  0  0  0  0  0  0  0  0  0  0  0
   10.3391  -19.3507   22.3551 C   0  0  0  0  0  0  0  0  0  0  0  0
    9.1038  -19.9562   22.2712 C   0  0  0  0  0  0  0  0  0  0  0  0
    9.1180  -20.7727   21.1995 N   0  0  0  0  0  0  0  0  0  0  0  0
   10.3246  -20.6969   20.6100 C   0  0  0  0  0  0  0  0  0  0  0  0
   11.0527  -19.8166   21.3412 N   0  0  0  0  0  0  0  0  0  0  0  0
   10.1511  -16.2415   24.5388 C   0  0  0  0  0  0  0  0  0  0  0  0
   11.2431  -15.6722   24.7659 O   0  0  0  0  0  0  0  0  0  0  0  0
    5.9057  -12.5891   27.0892 N   0  0  0  0  0  0  0  0  0  0  0  0
    6.8833  -12.2424   26.0845 C   0  0  0  0  0  0  0  0  0  0  0  0
    6.6448  -11.1972   25.4525 O   0  0  0  0  0  0  0  0  0  0  0  0
    8.0705  -13.1021   25.8577 C   0  0  0  0  0  0  0  0  0  0  0  0
    8.1534  -14.2467   26.8131 C   0  0  0  0  0  0  0  0  0  0  0  0
    9.3352  -15.1448   26.6451 C   0  0  2  0  0  0  0  0  0  0  0  0
    9.1077  -15.9959   25.4701 N   0  0  0  0  0  0  0  0  0  0  0  0
    9.5087  -15.9928   27.8411 C   0  0  0  0  0  0  0  0  0  0  0  0
    9.9606  -15.3814   29.0180 O   0  0  0  0  0  0  0  0  0  0  0  0
    9.2787  -17.2175   27.8707 O   0  0  0  0  0  0  0  0  0  0  0  0
  1  2  1  0
  3  2  1  0
  3  4  1  1
  5  3  1  0
  5  6  1  6
  7  5  1  0
  8  7  2  0
  9  7  1  0
 10  9  1  0
 10 11  1  6
 11 12  1  0
 12 13  2  0
 12 16  1  0
 13 14  1  0
 14 15  1  0
 16 15  2  0
 17 18  2  0
 17 10  1  0
 20 19  1  0
 21 20  2  0
 22 20  1  0
 24 23  1  1
 23 22  1  0
 24 25  1  0
 25 17  1  0
 26 24  1  0
 27 26  1  0
 28 26  2  0
M  END
$$$$
