IHQ.pdb
     RDKit          3D

 28 28  0  0  1  0  0  0  0  0999 V2000
    7.6362  -12.2735   17.4742 C   0  0  0  0  0  0  0  0  0  0  0  0
    8.8119  -13.2274   17.4495 C   0  0  0  0  0  0  0  0  0  0  0  0
    9.2839  -13.4472   18.8657 C   0  0  2  0  0  0  0  0  0  0  0  0
    9.8021  -12.1519   19.4524 C   0  0  0  0  0  0  0  0  0  0  0  0
   10.3894  -14.4632   18.9547 C   0  0  2  0  0  0  0  0  0  0  0  0
   10.1566  -15.6225   18.1570 N   0  0  0  0  0  0  0  0  0  0  0  0
   10.6730  -14.8653   20.3612 C   0  0  0  0  0  0  0  0  0  0  0  0
   11.3247  -14.0890   21.1272 O   0  0  0  0  0  0  0  0  0  0  0  0
   10.2419  -16.0973   20.8964 N   0  0  0  0  0  0  0  0  0  0  0  0
   10.4987  -16.5280   22.2513 C   0  0  1  0  0  0  0  0  0  0  0  0
    9.4396  -17.4788   22.7493 C   0  0  0  0  0  0  0  0  0  0  0  0
    8.0658  -16.9467   22.6344 C   0  0  0  0  0  0  0  0  0  0  0  0
    7.3961  -16.2980   23.6493 C   0  0  0  0  0  0  0  0  0  0  0  0
    6.1757  -15.9619   23.1876 N   0  0  0  0  0  0  0  0  0  0  0  0
    6.0611  -16.3805   21.9145 C   0  0  0  0  0  0  0  0  0  0  0  0
    7.2364  -16.9812   21.6023 N   0  0  0  0  0  0  0  0  0  0  0  0
   11.8639  -17.0471   22.3758 C   0  0  0  0  0  0  0  0  0  0  0  0
   12.3332  -17.9841   21.6904 O   0  0  0  0  0  0  0  0  0  0  0  0
   15.9491  -14.4797   20.6503 N   0  0  0  0  0  0  0  0  0  0  0  0
   16.8529  -14.8743   21.7051 C   0  0  0  0  0  0  0  0  0  0  0  0
   18.0623  -14.7981   21.4218 O   0  0  0  0  0  0  0  0  0  0  0  0
   16.3301  -15.3313   23.0157 C   0  0  0  0  0  0  0  0  0  0  0  0
   14.8384  -15.3241   23.0838 C   0  0  0  0  0  0  0  0  0  0  0  0
   14.1916  -16.6621   23.2354 C   0  0  2  0  0  0  0  0  0  0  0  0
   12.7392  -16.4670   23.3318 N   0  0  0  0  0  0  0  0  0  0  0  0
   14.6805  -17.3323   24.4567 C   0  0  0  0  0  0  0  0  0  0  0  0
   13.8496  -17.3258   25.5849 O   0  0  0  0  0  0  0  0  0  0  0  0
   15.7847  -17.9032   24.5481 O   0  0  0  0  0  0  0  0  0  0  0  0
  1  2  1  0
  3  2  1  0
  3  4  1  6
  5  3  1  0
  5  6  1  6
  7  5  1  0
  8  7  2  0
  9  7  1  0
 10  9  1  0
 10 11  1  6
 11 12  1  0
 12 13  2  0
 12 16  1  0
 13 14  1  0
 14 15  1  0
 16 15  2  0
 17 18  2  0
 17 10  1  0
 20 19  1  0
 21 20  2  0
 22 20  1  0
 24 23  1  1
 23 22  1  0
 24 25  1  0
 25 17  1  0
 26 24  1  0
 27 26  1  0
 28 26  2  0
M  END
$$$$
