WSN.pdb
     RDKit          3D

 29 30  0  0  1  0  0  0  0  0999 V2000
    6.8039  -17.4904   23.5980 N   0  0  0  0  0  0  0  0  0  0  0  0
    7.1258  -16.1751   23.0778 C   0  0  1  0  0  0  0  0  0  0  0  0
    8.0091  -15.4178   24.0435 C   0  0  0  0  0  0  0  0  0  0  0  0
    7.3095  -14.8944   25.2165 C   0  0  0  0  0  0  0  0  0  0  0  0
    6.6238  -15.6472   26.1461 C   0  0  0  0  0  0  0  0  0  0  0  0
    6.1134  -14.8443   27.0795 N   0  0  0  0  0  0  0  0  0  0  0  0
    6.4183  -13.5699   26.8322 C   0  0  0  0  0  0  0  0  0  0  0  0
    6.1218  -12.3979   27.5006 C   0  0  0  0  0  0  0  0  0  0  0  0
    6.6067  -11.2279   26.9567 C   0  0  0  0  0  0  0  0  0  0  0  0
    7.3645  -11.2336   25.7808 C   0  0  0  0  0  0  0  0  0  0  0  0
    7.6476  -12.4179   25.1315 C   0  0  0  0  0  0  0  0  0  0  0  0
    7.1703  -13.5801   25.6647 C   0  0  0  0  0  0  0  0  0  0  0  0
    7.7574  -16.2844   21.7412 C   0  0  0  0  0  0  0  0  0  0  0  0
    8.2929  -17.3699   21.4272 O   0  0  0  0  0  0  0  0  0  0  0  0
    9.0634  -13.0029   19.3139 O   0  0  0  0  0  0  0  0  0  0  0  0
    8.1214  -13.9000   18.8830 C   0  0  0  0  0  0  0  0  0  0  0  0
    8.3275  -15.2928   19.4790 C   0  0  2  0  0  0  0  0  0  0  0  0
    7.7794  -15.2228   20.8186 N   0  0  0  0  0  0  0  0  0  0  0  0
    9.7752  -15.5519   19.5041 C   0  0  0  0  0  0  0  0  0  0  0  0
   10.3538  -15.8313   18.3991 O   0  0  0  0  0  0  0  0  0  0  0  0
   13.4758  -13.7886   18.1661 N   0  0  0  0  0  0  0  0  0  0  0  0
   13.6326  -14.7987   19.1646 C   0  0  0  0  0  0  0  0  0  0  0  0
   14.3840  -15.7746   19.0063 O   0  0  0  0  0  0  0  0  0  0  0  0
   12.8691  -14.6705   20.4274 C   0  0  0  0  0  0  0  0  0  0  0  0
   11.9934  -15.8919   20.6441 C   0  0  2  0  0  0  0  0  0  0  0  0
   10.5926  -15.5191   20.6518 N   0  0  0  0  0  0  0  0  0  0  0  0
   12.3322  -16.4513   21.9709 C   0  0  0  0  0  0  0  0  0  0  0  0
   11.3754  -16.4716   22.9923 O   0  0  0  0  0  0  0  0  0  0  0  0
   13.4853  -16.9263   22.2282 O   0  0  0  0  0  0  0  0  0  0  0  0
  2  1  1  1
  2  3  1  0
  2 13  1  0
  3  4  1  0
  4 12  1  0
  5  4  2  0
  5  6  1  0
  6  7  1  0
  7  8  1  0
  8  9  2  0
 10  9  1  0
 11 10  2  0
 12  7  2  0
 12 11  1  0
 13 18  1  0
 13 14  2  0
 15 16  1  0
 17 16  1  1
 18 17  1  0
 19 17  1  0
 19 26  1  0
 20 19  2  0
 22 23  2  0
 22 21  1  0
 24 22  1  0
 25 27  1  0
 25 24  1  1
 25 26  1  0
 27 28  1  0
 29 27  2  0
M  END
$$$$
