WSN.pdb
     RDKit          3D

 29 30  0  0  1  0  0  0  0  0999 V2000
    7.9314  -16.4349   23.4337 N   0  0  0  0  0  0  0  0  0  0  0  0
    8.9589  -16.2359   24.4381 C   0  0  1  0  0  0  0  0  0  0  0  0
    8.3499  -16.1550   25.8197 C   0  0  0  0  0  0  0  0  0  0  0  0
    7.2776  -15.1686   25.9488 C   0  0  0  0  0  0  0  0  0  0  0  0
    5.9398  -15.4534   26.1223 C   0  0  0  0  0  0  0  0  0  0  0  0
    5.2499  -14.3159   26.2037 N   0  0  0  0  0  0  0  0  0  0  0  0
    6.0559  -13.2593   26.0936 C   0  0  0  0  0  0  0  0  0  0  0  0
    5.8127  -11.8997   26.1169 C   0  0  0  0  0  0  0  0  0  0  0  0
    6.9015  -11.0670   25.9723 C   0  0  0  0  0  0  0  0  0  0  0  0
    8.1922  -11.5815   25.8099 C   0  0  0  0  0  0  0  0  0  0  0  0
    8.4095  -12.9441   25.7901 C   0  0  0  0  0  0  0  0  0  0  0  0
    7.3355  -13.7743   25.9326 C   0  0  0  0  0  0  0  0  0  0  0  0
    9.9780  -17.3095   24.3598 C   0  0  0  0  0  0  0  0  0  0  0  0
   10.0702  -18.1083   25.3175 O   0  0  0  0  0  0  0  0  0  0  0  0
   13.3325  -16.4755   22.2738 O   0  0  0  0  0  0  0  0  0  0  0  0
   12.8700  -17.7494   22.0706 C   0  0  0  0  0  0  0  0  0  0  0  0
   12.0474  -18.2660   23.2514 C   0  0  2  0  0  0  0  0  0  0  0  0
   10.8405  -17.4640   23.2594 N   0  0  0  0  0  0  0  0  0  0  0  0
   12.8426  -18.0515   24.4701 C   0  0  0  0  0  0  0  0  0  0  0  0
   13.0505  -16.8478   24.8466 O   0  0  0  0  0  0  0  0  0  0  0  0
   13.2422  -19.0717   29.4166 N   0  0  0  0  0  0  0  0  0  0  0  0
   11.9861  -19.0523   28.7355 C   0  0  0  0  0  0  0  0  0  0  0  0
   10.9043  -19.0077   29.3434 O   0  0  0  0  0  0  0  0  0  0  0  0
   11.9831  -19.0875   27.2546 C   0  0  0  0  0  0  0  0  0  0  0  0
   13.4032  -19.0313   26.7199 C   0  0  2  0  0  0  0  0  0  0  0  0
   13.4032  -19.0670   25.2707 N   0  0  0  0  0  0  0  0  0  0  0  0
   14.1114  -20.2323   27.2139 C   0  0  0  0  0  0  0  0  0  0  0  0
   13.5986  -21.5088   26.9556 O   0  0  0  0  0  0  0  0  0  0  0  0
   15.1936  -20.1510   27.8798 O   0  0  0  0  0  0  0  0  0  0  0  0
  2  1  1  6
  2  3  1  0
  2 13  1  0
  3  4  1  0
  4 12  1  0
  5  4  2  0
  5  6  1  0
  6  7  1  0
  7  8  1  0
  8  9  2  0
 10  9  1  0
 11 10  2  0
 12  7  2  0
 12 11  1  0
 13 18  1  0
 13 14  2  0
 15 16  1  0
 17 16  1  6
 18 17  1  0
 19 17  1  0
 19 26  1  0
 20 19  2  0
 22 23  2  0
 22 21  1  0
 24 22  1  0
 25 27  1  0
 25 24  1  1
 25 26  1  0
 27 28  1  0
 29 27  2  0
M  END
$$$$
