WSN.pdb
     RDKit          3D

 29 30  0  0  1  0  0  0  0  0999 V2000
    8.6409  -16.1163   20.5803 N   0  0  0  0  0  0  0  0  0  0  0  0
    8.8153  -15.5545   21.9062 C   0  0  1  0  0  0  0  0  0  0  0  0
    7.5090  -15.5614   22.6678 C   0  0  0  0  0  0  0  0  0  0  0  0
    7.1732  -14.2858   23.2999 C   0  0  0  0  0  0  0  0  0  0  0  0
    6.6410  -13.1868   22.6597 C   0  0  0  0  0  0  0  0  0  0  0  0
    6.4602  -12.2032   23.5409 N   0  0  0  0  0  0  0  0  0  0  0  0
    6.8454  -12.5782   24.7612 C   0  0  0  0  0  0  0  0  0  0  0  0
    6.8508  -11.9206   25.9759 C   0  0  0  0  0  0  0  0  0  0  0  0
    7.3274  -12.6201   27.0637 C   0  0  0  0  0  0  0  0  0  0  0  0
    7.7833  -13.9366   26.9370 C   0  0  0  0  0  0  0  0  0  0  0  0
    7.7676  -14.5722   25.7122 C   0  0  0  0  0  0  0  0  0  0  0  0
    7.2970  -13.8850   24.6309 C   0  0  0  0  0  0  0  0  0  0  0  0
    9.8742  -16.2828   22.6449 C   0  0  0  0  0  0  0  0  0  0  0  0
   10.1762  -17.4347   22.2629 O   0  0  0  0  0  0  0  0  0  0  0  0
   11.1551  -14.9040   26.3284 O   0  0  0  0  0  0  0  0  0  0  0  0
   12.1313  -15.3319   25.4670 C   0  0  0  0  0  0  0  0  0  0  0  0
   11.6189  -16.3823   24.4812 C   0  0  2  0  0  0  0  0  0  0  0  0
   10.5475  -15.7345   23.7515 N   0  0  0  0  0  0  0  0  0  0  0  0
   11.1206  -17.5203   25.2687 C   0  0  0  0  0  0  0  0  0  0  0  0
    9.8788  -17.5428   25.5708 O   0  0  0  0  0  0  0  0  0  0  0  0
   13.2765  -21.5709   24.2028 N   0  0  0  0  0  0  0  0  0  0  0  0
   12.0869  -21.4458   24.9846 C   0  0  0  0  0  0  0  0  0  0  0  0
   10.9678  -21.7488   24.5398 O   0  0  0  0  0  0  0  0  0  0  0  0
   12.2009  -20.9361   26.3707 C   0  0  0  0  0  0  0  0  0  0  0  0
   11.3702  -19.6767   26.5428 C   0  0  2  0  0  0  0  0  0  0  0  0
   11.8994  -18.6024   25.7260 N   0  0  0  0  0  0  0  0  0  0  0  0
   11.4668  -19.2716   27.9622 C   0  0  0  0  0  0  0  0  0  0  0  0
   10.7856  -19.9937   28.9489 O   0  0  0  0  0  0  0  0  0  0  0  0
   12.1604  -18.2699   28.3320 O   0  0  0  0  0  0  0  0  0  0  0  0
  2  1  1  6
  2  3  1  0
  2 13  1  0
  3  4  1  0
  4 12  1  0
  5  4  2  0
  5  6  1  0
  6  7  1  0
  7  8  1  0
  8  9  2  0
 10  9  1  0
 11 10  2  0
 12  7  2  0
 12 11  1  0
 13 18  1  0
 13 14  2  0
 15 16  1  0
 17 16  1  1
 18 17  1  0
 19 17  1  0
 19 26  1  0
 20 19  2  0
 22 23  2  0
 22 21  1  0
 24 22  1  0
 25 27  1  0
 25 24  1  1
 25 26  1  0
 27 28  1  0
 29 27  2  0
M  END
$$$$
