WSN.pdb
     RDKit          3D

 29 30  0  0  1  0  0  0  0  0999 V2000
    6.7450  -17.5015   24.0727 N   0  0  0  0  0  0  0  0  0  0  0  0
    7.8120  -16.5719   23.7542 C   0  0  1  0  0  0  0  0  0  0  0  0
    8.2882  -15.8555   24.9977 C   0  0  0  0  0  0  0  0  0  0  0  0
    7.3133  -14.9264   25.5685 C   0  0  0  0  0  0  0  0  0  0  0  0
    6.1090  -15.2763   26.1414 C   0  0  0  0  0  0  0  0  0  0  0  0
    5.4785  -14.1781   26.5572 N   0  0  0  0  0  0  0  0  0  0  0  0
    6.1976  -13.0861   26.2949 C   0  0  0  0  0  0  0  0  0  0  0  0
    5.9685  -11.7447   26.5319 C   0  0  0  0  0  0  0  0  0  0  0  0
    6.9443  -10.8617   26.1224 C   0  0  0  0  0  0  0  0  0  0  0  0
    8.1120  -11.3098   25.4957 C   0  0  0  0  0  0  0  0  0  0  0  0
    8.3178  -12.6556   25.2701 C   0  0  0  0  0  0  0  0  0  0  0  0
    7.3552  -13.5354   25.6732 C   0  0  0  0  0  0  0  0  0  0  0  0
    8.9277  -17.2730   23.0751 C   0  0  0  0  0  0  0  0  0  0  0  0
    9.3013  -18.3742   23.5350 O   0  0  0  0  0  0  0  0  0  0  0  0
   11.5977  -15.2867   20.3355 O   0  0  0  0  0  0  0  0  0  0  0  0
   10.9988  -16.4890   20.0638 C   0  0  0  0  0  0  0  0  0  0  0  0
   10.7612  -17.3198   21.3252 C   0  0  2  0  0  0  0  0  0  0  0  0
    9.5792  -16.7523   21.9424 N   0  0  0  0  0  0  0  0  0  0  0  0
   11.9439  -17.1633   22.1856 C   0  0  0  0  0  0  0  0  0  0  0  0
   11.9979  -16.1408   22.9508 O   0  0  0  0  0  0  0  0  0  0  0  0
   13.3186  -21.1994   23.9300 N   0  0  0  0  0  0  0  0  0  0  0  0
   13.9336  -19.9989   24.4016 C   0  0  0  0  0  0  0  0  0  0  0  0
   13.7740  -19.5852   25.5615 O   0  0  0  0  0  0  0  0  0  0  0  0
   14.7878  -19.2275   23.4693 C   0  0  0  0  0  0  0  0  0  0  0  0
   14.1519  -17.8850   23.1548 C   0  0  2  0  0  0  0  0  0  0  0  0
   13.0371  -18.0509   22.2432 N   0  0  0  0  0  0  0  0  0  0  0  0
   15.1774  -17.0535   22.4876 C   0  0  0  0  0  0  0  0  0  0  0  0
   15.3131  -17.0848   21.0948 O   0  0  0  0  0  0  0  0  0  0  0  0
   15.9600  -16.2926   23.1433 O   0  0  0  0  0  0  0  0  0  0  0  0
  2  1  1  1
  2  3  1  0
  2 13  1  0
  3  4  1  0
  4 12  1  0
  5  4  2  0
  5  6  1  0
  6  7  1  0
  7  8  1  0
  8  9  2  0
 10  9  1  0
 11 10  2  0
 12  7  2  0
 12 11  1  0
 13 18  1  0
 13 14  2  0
 15 16  1  0
 17 16  1  6
 18 17  1  0
 19 17  1  0
 19 26  1  0
 20 19  2  0
 22 23  2  0
 22 21  1  0
 24 22  1  0
 25 27  1  0
 25 24  1  6
 25 26  1  0
 27 28  1  0
 29 27  2  0
M  END
$$$$
