WSN.pdb
     RDKit          3D

 29 30  0  0  1  0  0  0  0  0999 V2000
    6.4465  -17.5809   24.5649 N   0  0  0  0  0  0  0  0  0  0  0  0
    6.9414  -16.4366   23.8232 C   0  0  1  0  0  0  0  0  0  0  0  0
    7.8405  -15.5838   24.6897 C   0  0  0  0  0  0  0  0  0  0  0  0
    7.1290  -14.7442   25.6532 C   0  0  0  0  0  0  0  0  0  0  0  0
    6.2856  -15.1969   26.6455 C   0  0  0  0  0  0  0  0  0  0  0  0
    5.8148  -14.1591   27.3368 N   0  0  0  0  0  0  0  0  0  0  0  0
    6.2982  -13.0103   26.8625 C   0  0  0  0  0  0  0  0  0  0  0  0
    6.1060  -11.6958   27.2406 C   0  0  0  0  0  0  0  0  0  0  0  0
    6.7758  -10.7325   26.5173 C   0  0  0  0  0  0  0  0  0  0  0  0
    7.6115  -11.0770   25.4496 C   0  0  0  0  0  0  0  0  0  0  0  0
    7.7875  -12.3979   25.0911 C   0  0  0  0  0  0  0  0  0  0  0  0
    7.1269  -13.3567   25.8033 C   0  0  0  0  0  0  0  0  0  0  0  0
    7.6389  -16.8769   22.5916 C   0  0  0  0  0  0  0  0  0  0  0  0
    8.2289  -17.9794   22.6080 O   0  0  0  0  0  0  0  0  0  0  0  0
    7.9751  -14.1506   19.4882 O   0  0  0  0  0  0  0  0  0  0  0  0
    7.9658  -15.4785   19.1494 C   0  0  0  0  0  0  0  0  0  0  0  0
    8.5114  -16.3686   20.2664 C   0  0  2  0  0  0  0  0  0  0  0  0
    7.6646  -16.1089   21.4133 N   0  0  0  0  0  0  0  0  0  0  0  0
    9.9003  -15.9564   20.5201 C   0  0  0  0  0  0  0  0  0  0  0  0
   10.0968  -14.9380   21.2673 O   0  0  0  0  0  0  0  0  0  0  0  0
   13.6539  -17.5056   23.5725 N   0  0  0  0  0  0  0  0  0  0  0  0
   13.0609  -18.3753   22.6061 C   0  0  0  0  0  0  0  0  0  0  0  0
   13.5311  -19.4949   22.3467 O   0  0  0  0  0  0  0  0  0  0  0  0
   11.8454  -17.9181   21.8937 C   0  0  0  0  0  0  0  0  0  0  0  0
   12.2094  -16.9144   20.8139 C   0  0  2  0  0  0  0  0  0  0  0  0
   11.0492  -16.5916   20.0071 N   0  0  0  0  0  0  0  0  0  0  0  0
   13.2203  -17.5491   19.9404 C   0  0  0  0  0  0  0  0  0  0  0  0
   12.8813  -18.6638   19.1647 O   0  0  0  0  0  0  0  0  0  0  0  0
   14.4142  -17.1131   19.8630 O   0  0  0  0  0  0  0  0  0  0  0  0
  2  1  1  1
  2  3  1  0
  2 13  1  0
  3  4  1  0
  4 12  1  0
  5  4  2  0
  5  6  1  0
  6  7  1  0
  7  8  1  0
  8  9  2  0
 10  9  1  0
 11 10  2  0
 12  7  2  0
 12 11  1  0
 13 18  1  0
 13 14  2  0
 15 16  1  0
 17 16  1  6
 18 17  1  0
 19 17  1  0
 19 26  1  0
 20 19  2  0
 22 23  2  0
 22 21  1  0
 24 22  1  0
 25 27  1  0
 25 24  1  1
 25 26  1  0
 27 28  1  0
 29 27  2  0
M  END
$$$$
