WSN.pdb
     RDKit          3D

 29 30  0  0  1  0  0  0  0  0999 V2000
    6.2247  -17.4315   23.7858 N   0  0  0  0  0  0  0  0  0  0  0  0
    7.3049  -16.4651   23.7274 C   0  0  1  0  0  0  0  0  0  0  0  0
    7.7365  -16.0583   25.1183 C   0  0  0  0  0  0  0  0  0  0  0  0
    6.9602  -14.9599   25.6931 C   0  0  0  0  0  0  0  0  0  0  0  0
    5.7648  -15.0873   26.3682 C   0  0  0  0  0  0  0  0  0  0  0  0
    5.3415  -13.8838   26.7541 N   0  0  0  0  0  0  0  0  0  0  0  0
    6.1949  -12.9325   26.3733 C   0  0  0  0  0  0  0  0  0  0  0  0
    6.1901  -11.5610   26.5382 C   0  0  0  0  0  0  0  0  0  0  0  0
    7.2535  -10.8635   26.0068 C   0  0  0  0  0  0  0  0  0  0  0  0
    8.2880  -11.5205   25.3322 C   0  0  0  0  0  0  0  0  0  0  0  0
    8.2701  -12.8920   25.1807 C   0  0  0  0  0  0  0  0  0  0  0  0
    7.2198  -13.5887   25.7044 C   0  0  0  0  0  0  0  0  0  0  0  0
    8.4432  -17.0037   22.9454 C   0  0  0  0  0  0  0  0  0  0  0  0
    8.7211  -18.2171   23.0646 O   0  0  0  0  0  0  0  0  0  0  0  0
   12.0880  -15.6663   19.9594 O   0  0  0  0  0  0  0  0  0  0  0  0
   10.9074  -15.4295   20.6138 C   0  0  0  0  0  0  0  0  0  0  0  0
   10.4816  -16.6066   21.4918 C   0  0  2  0  0  0  0  0  0  0  0  0
    9.2187  -16.2097   22.0812 N   0  0  0  0  0  0  0  0  0  0  0  0
   11.5194  -16.7893   22.5180 C   0  0  0  0  0  0  0  0  0  0  0  0
   11.5696  -15.9457   23.4771 O   0  0  0  0  0  0  0  0  0  0  0  0
   11.7517  -19.1127   25.2198 N   0  0  0  0  0  0  0  0  0  0  0  0
   12.7825  -19.9688   24.7232 C   0  0  0  0  0  0  0  0  0  0  0  0
   12.8334  -21.1767   25.0068 O   0  0  0  0  0  0  0  0  0  0  0  0
   13.8218  -19.3880   23.8419 C   0  0  0  0  0  0  0  0  0  0  0  0
   13.5130  -17.9309   23.5466 C   0  0  2  0  0  0  0  0  0  0  0  0
   12.4757  -17.8244   22.5396 N   0  0  0  0  0  0  0  0  0  0  0  0
   14.7464  -17.3158   23.0095 C   0  0  0  0  0  0  0  0  0  0  0  0
   15.8152  -17.0190   23.8631 O   0  0  0  0  0  0  0  0  0  0  0  0
   14.8790  -17.0387   21.7738 O   0  0  0  0  0  0  0  0  0  0  0  0
  2  1  1  1
  2  3  1  0
  2 13  1  0
  3  4  1  0
  4 12  1  0
  5  4  2  0
  5  6  1  0
  6  7  1  0
  7  8  1  0
  8  9  2  0
 10  9  1  0
 11 10  2  0
 12  7  2  0
 12 11  1  0
 13 18  1  0
 13 14  2  0
 15 16  1  0
 17 16  1  6
 18 17  1  0
 19 17  1  0
 19 26  1  0
 20 19  2  0
 22 23  2  0
 22 21  1  0
 24 22  1  0
 25 27  1  0
 25 24  1  6
 25 26  1  0
 27 28  1  0
 29 27  2  0
M  END
$$$$
