WSN.pdb
     RDKit          3D

 29 30  0  0  1  0  0  0  0  0999 V2000
    6.4151  -17.8105   24.7644 N   0  0  0  0  0  0  0  0  0  0  0  0
    7.0358  -16.7538   23.9883 C   0  0  1  0  0  0  0  0  0  0  0  0
    7.8119  -15.8152   24.8844 C   0  0  0  0  0  0  0  0  0  0  0  0
    6.9865  -14.8346   25.5891 C   0  0  0  0  0  0  0  0  0  0  0  0
    5.8353  -15.1120   26.2954 C   0  0  0  0  0  0  0  0  0  0  0  0
    5.3455  -13.9835   26.8084 N   0  0  0  0  0  0  0  0  0  0  0  0
    6.1107  -12.9402   26.4852 C   0  0  0  0  0  0  0  0  0  0  0  0
    6.0158  -11.5935   26.7776 C   0  0  0  0  0  0  0  0  0  0  0  0
    7.0014  -10.7729   26.2727 C   0  0  0  0  0  0  0  0  0  0  0  0
    8.0482  -11.2867   25.4998 C   0  0  0  0  0  0  0  0  0  0  0  0
    8.1210  -12.6364   25.2215 C   0  0  0  0  0  0  0  0  0  0  0  0
    7.1480  -13.4545   25.7184 C   0  0  0  0  0  0  0  0  0  0  0  0
    7.9001  -17.3256   22.9284 C   0  0  0  0  0  0  0  0  0  0  0  0
    8.4667  -18.4176   23.1526 O   0  0  0  0  0  0  0  0  0  0  0  0
    9.0682  -14.8355   19.8685 O   0  0  0  0  0  0  0  0  0  0  0  0
    8.8844  -16.1477   19.5184 C   0  0  0  0  0  0  0  0  0  0  0  0
    9.0842  -17.0990   20.6985 C   0  0  2  0  0  0  0  0  0  0  0  0
    8.1080  -16.6928   21.6895 N   0  0  0  0  0  0  0  0  0  0  0  0
   10.4579  -16.9104   21.1893 C   0  0  0  0  0  0  0  0  0  0  0  0
   10.6917  -15.9084   21.9477 O   0  0  0  0  0  0  0  0  0  0  0  0
   11.7751  -20.1221   23.4373 N   0  0  0  0  0  0  0  0  0  0  0  0
   12.7501  -19.0804   23.3585 C   0  0  0  0  0  0  0  0  0  0  0  0
   13.0592  -18.3876   24.3416 O   0  0  0  0  0  0  0  0  0  0  0  0
   13.4089  -18.8242   22.0568 C   0  0  0  0  0  0  0  0  0  0  0  0
   12.8819  -17.5412   21.4390 C   0  0  2  0  0  0  0  0  0  0  0  0
   11.5540  -17.7462   20.8949 N   0  0  0  0  0  0  0  0  0  0  0  0
   13.7882  -17.1788   20.3275 C   0  0  0  0  0  0  0  0  0  0  0  0
   15.1371  -16.9033   20.5795 O   0  0  0  0  0  0  0  0  0  0  0  0
   13.3823  -17.1055   19.1229 O   0  0  0  0  0  0  0  0  0  0  0  0
  2  1  1  1
  2  3  1  0
  2 13  1  0
  3  4  1  0
  4 12  1  0
  5  4  2  0
  5  6  1  0
  6  7  1  0
  7  8  1  0
  8  9  2  0
 10  9  1  0
 11 10  2  0
 12  7  2  0
 12 11  1  0
 13 18  1  0
 13 14  2  0
 15 16  1  0
 17 16  1  6
 18 17  1  0
 19 17  1  0
 19 26  1  0
 20 19  2  0
 22 23  2  0
 22 21  1  0
 24 22  1  0
 25 27  1  0
 25 24  1  6
 25 26  1  0
 27 28  1  0
 29 27  2  0
M  END
$$$$
