YWH.pdb
     RDKit          3D

 37 40  0  0  1  0  0  0  0  0999 V2000
    7.3199  -18.9298   14.8306 O   0  0  0  0  0  0  0  0  0  0  0  0
    7.9124  -18.6671   16.0721 C   0  0  0  0  0  0  0  0  0  0  0  0
    7.1239  -18.8241   17.1905 C   0  0  0  0  0  0  0  0  0  0  0  0
    7.6754  -18.5740   18.4275 C   0  0  0  0  0  0  0  0  0  0  0  0
    8.9965  -18.1743   18.5184 C   0  0  0  0  0  0  0  0  0  0  0  0
    9.5452  -17.9159   19.8881 C   0  0  0  0  0  0  0  0  0  0  0  0
    8.9953  -16.6332   20.4575 C   0  0  2  0  0  0  0  0  0  0  0  0
    9.4129  -15.5451   19.5998 N   0  0  0  0  0  0  0  0  0  0  0  0
    9.3801  -16.3845   21.8494 C   0  0  0  0  0  0  0  0  0  0  0  0
   10.4134  -15.7030   22.0873 O   0  0  0  0  0  0  0  0  0  0  0  0
    9.7893  -18.0164   17.3951 C   0  0  0  0  0  0  0  0  0  0  0  0
    9.2290  -18.2686   16.1657 C   0  0  0  0  0  0  0  0  0  0  0  0
    8.6632  -16.8618   22.9736 N   0  0  0  0  0  0  0  0  0  0  0  0
    9.0754  -16.6192   24.3152 C   0  0  1  0  0  0  0  0  0  0  0  0
    7.9935  -16.2786   25.2681 C   0  0  0  0  0  0  0  0  0  0  0  0
    7.1563  -15.1250   24.9437 C   0  0  0  0  0  0  0  0  0  0  0  0
    6.0937  -14.9230   24.1012 C   0  0  0  0  0  0  0  0  0  0  0  0
    5.6595  -13.6283   24.1844 N   0  0  0  0  0  0  0  0  0  0  0  0
    6.4448  -13.0063   25.0793 C   0  0  0  0  0  0  0  0  0  0  0  0
    6.4328  -11.6841   25.5356 C   0  0  0  0  0  0  0  0  0  0  0  0
    7.3317  -11.2514   26.4615 C   0  0  0  0  0  0  0  0  0  0  0  0
    8.2681  -12.1201   26.9603 C   0  0  0  0  0  0  0  0  0  0  0  0
    8.2694  -13.4233   26.5015 C   0  0  0  0  0  0  0  0  0  0  0  0
    7.3683  -13.8874   25.5629 C   0  0  0  0  0  0  0  0  0  0  0  0
    9.8773  -17.7548   24.8850 C   0  0  0  0  0  0  0  0  0  0  0  0
    9.4551  -18.9493   24.7218 O   0  0  0  0  0  0  0  0  0  0  0  0
   11.0725  -17.5836   25.5924 N   0  0  0  0  0  0  0  0  0  0  0  0
   11.7943  -18.6814   26.2430 C   0  0  1  0  0  0  0  0  0  0  0  0
   13.2522  -18.3321   26.1487 C   0  0  0  0  0  0  0  0  0  0  0  0
   13.7928  -18.2917   24.7906 C   0  0  0  0  0  0  0  0  0  0  0  0
   13.2973  -18.9775   23.7056 C   0  0  0  0  0  0  0  0  0  0  0  0
   14.0731  -18.6749   22.6489 N   0  0  0  0  0  0  0  0  0  0  0  0
   15.0401  -17.8213   23.0336 C   0  0  0  0  0  0  0  0  0  0  0  0
   14.8505  -17.5969   24.3591 N   0  0  0  0  0  0  0  0  0  0  0  0
   11.3946  -18.7939   27.6701 C   0  0  0  0  0  0  0  0  0  0  0  0
   11.9908  -19.7688   28.4452 O   0  0  0  0  0  0  0  0  0  0  0  0
   10.5369  -18.0274   28.1712 O   0  0  0  0  0  0  0  0  0  0  0  0
  2  1  1  0
  3  2  2  0
  4  3  1  0
  5 11  1  0
  5  4  2  0
  6  5  1  0
  7  8  1  6
  7  9  1  0
  7  6  1  0
  9 10  2  0
 11 12  2  0
 12  2  1  0
 13 14  1  0
 13  9  1  0
 14 25  1  0
 14 15  1  1
 16 15  1  0
 17 16  2  0
 18 17  1  0
 19 18  1  0
 19 24  2  0
 20 19  1  0
 21 20  2  0
 21 22  1  0
 22 23  2  0
 23 24  1  0
 24 16  1  0
 25 27  1  0
 25 26  2  0
 27 28  1  0
 28 29  1  1
 29 30  1  0
 30 31  2  0
 31 32  1  0
 33 32  1  0
 34 30  1  0
 34 33  2  0
 35 28  1  0
 35 36  1  0
 37 35  2  0
M  END
$$$$
