YWH.pdb
     RDKit          3D

 37 40  0  0  1  0  0  0  0  0999 V2000
    6.9506  -19.8320   15.7219 O   0  0  0  0  0  0  0  0  0  0  0  0
    7.5569  -19.5975   16.9623 C   0  0  0  0  0  0  0  0  0  0  0  0
    7.7342  -18.2839   17.3367 C   0  0  0  0  0  0  0  0  0  0  0  0
    8.3275  -18.0178   18.5508 C   0  0  0  0  0  0  0  0  0  0  0  0
    8.7284  -19.0659   19.3596 C   0  0  0  0  0  0  0  0  0  0  0  0
    9.3679  -18.7196   20.6692 C   0  0  0  0  0  0  0  0  0  0  0  0
    9.2225  -17.2498   20.9700 C   0  0  2  0  0  0  0  0  0  0  0  0
    9.9127  -16.5089   19.9362 N   0  0  0  0  0  0  0  0  0  0  0  0
    9.6966  -16.8630   22.3014 C   0  0  0  0  0  0  0  0  0  0  0  0
   10.9225  -16.6226   22.4696 O   0  0  0  0  0  0  0  0  0  0  0  0
    8.5505  -20.3859   18.9840 C   0  0  0  0  0  0  0  0  0  0  0  0
    7.9575  -20.6402   17.7706 C   0  0  0  0  0  0  0  0  0  0  0  0
    8.8638  -16.7352   23.4397 N   0  0  0  0  0  0  0  0  0  0  0  0
    9.3741  -16.5323   24.7539 C   0  0  1  0  0  0  0  0  0  0  0  0
    8.3829  -16.1073   25.7695 C   0  0  0  0  0  0  0  0  0  0  0  0
    7.3402  -15.1783   25.3373 C   0  0  0  0  0  0  0  0  0  0  0  0
    6.2131  -15.2994   24.5664 C   0  0  0  0  0  0  0  0  0  0  0  0
    5.5647  -14.0979   24.4786 N   0  0  0  0  0  0  0  0  0  0  0  0
    6.2785  -13.2123   25.1932 C   0  0  0  0  0  0  0  0  0  0  0  0
    6.0613  -11.8512   25.4323 C   0  0  0  0  0  0  0  0  0  0  0  0
    6.9215  -11.1258   26.1980 C   0  0  0  0  0  0  0  0  0  0  0  0
    8.0218  -11.7318   26.7479 C   0  0  0  0  0  0  0  0  0  0  0  0
    8.2249  -13.0765   26.5042 C   0  0  0  0  0  0  0  0  0  0  0  0
    7.3674  -13.8351   25.7311 C   0  0  0  0  0  0  0  0  0  0  0  0
   10.1123  -17.7323   25.2761 C   0  0  0  0  0  0  0  0  0  0  0  0
    9.7904  -18.8898   24.8423 O   0  0  0  0  0  0  0  0  0  0  0  0
   11.1429  -17.6601   26.2199 N   0  0  0  0  0  0  0  0  0  0  0  0
   11.8139  -18.8374   26.7798 C   0  0  1  0  0  0  0  0  0  0  0  0
   13.2505  -18.7379   26.3525 C   0  0  0  0  0  0  0  0  0  0  0  0
   14.1123  -19.8228   26.8200 C   0  0  0  0  0  0  0  0  0  0  0  0
   13.6874  -21.0486   27.2785 C   0  0  0  0  0  0  0  0  0  0  0  0
   14.7822  -21.7555   27.6127 N   0  0  0  0  0  0  0  0  0  0  0  0
   15.8816  -21.0147   27.3795 C   0  0  0  0  0  0  0  0  0  0  0  0
   15.4475  -19.8249   26.8905 N   0  0  0  0  0  0  0  0  0  0  0  0
   11.7280  -18.8293   28.2635 C   0  0  0  0  0  0  0  0  0  0  0  0
   12.2266  -19.9142   28.9571 O   0  0  0  0  0  0  0  0  0  0  0  0
   11.2168  -17.8657   28.8835 O   0  0  0  0  0  0  0  0  0  0  0  0
  2  1  1  0
  3  2  2  0
  4  3  1  0
  5 11  1  0
  5  4  2  0
  6  5  1  0
  7  8  1  6
  7  9  1  0
  7  6  1  0
  9 10  2  0
 11 12  2  0
 12  2  1  0
 13 14  1  0
 13  9  1  0
 14 25  1  0
 14 15  1  1
 16 15  1  0
 17 16  2  0
 18 17  1  0
 19 18  1  0
 19 24  2  0
 20 19  1  0
 21 20  2  0
 21 22  1  0
 22 23  2  0
 23 24  1  0
 24 16  1  0
 25 27  1  0
 25 26  2  0
 27 28  1  0
 28 29  1  1
 29 30  1  0
 30 31  2  0
 31 32  1  0
 33 32  1  0
 34 30  1  0
 34 33  2  0
 35 28  1  0
 35 36  1  0
 37 35  2  0
M  END
$$$$
