YWH.pdb
     RDKit          3D

 37 40  0  0  1  0  0  0  0  0999 V2000
    7.2507  -13.8602   15.4404 O   0  0  0  0  0  0  0  0  0  0  0  0
    7.4652  -13.9468   16.8216 C   0  0  0  0  0  0  0  0  0  0  0  0
    7.1796  -12.8284   17.5732 C   0  0  0  0  0  0  0  0  0  0  0  0
    7.3792  -12.8795   18.9349 C   0  0  0  0  0  0  0  0  0  0  0  0
    7.8575  -14.0420   19.5122 C   0  0  0  0  0  0  0  0  0  0  0  0
    8.0561  -14.0425   20.9969 C   0  0  0  0  0  0  0  0  0  0  0  0
    8.5092  -15.3960   21.4812 C   0  0  2  0  0  0  0  0  0  0  0  0
    7.4474  -16.3445   21.2232 N   0  0  0  0  0  0  0  0  0  0  0  0
    8.9087  -15.4228   22.8908 C   0  0  0  0  0  0  0  0  0  0  0  0
    9.2755  -14.3515   23.4445 O   0  0  0  0  0  0  0  0  0  0  0  0
    8.1446  -15.1660   18.7576 C   0  0  0  0  0  0  0  0  0  0  0  0
    7.9418  -15.1041   17.3997 C   0  0  0  0  0  0  0  0  0  0  0  0
    8.9139  -16.5870   23.6973 N   0  0  0  0  0  0  0  0  0  0  0  0
    9.3885  -16.5968   25.0401 C   0  0  1  0  0  0  0  0  0  0  0  0
    8.3447  -16.6453   26.0902 C   0  0  0  0  0  0  0  0  0  0  0  0
    7.2675  -15.6606   26.0072 C   0  0  0  0  0  0  0  0  0  0  0  0
    5.9623  -15.7059   25.5902 C   0  0  0  0  0  0  0  0  0  0  0  0
    5.3742  -14.4788   25.7320 N   0  0  0  0  0  0  0  0  0  0  0  0
    6.3042  -13.6527   26.2390 C   0  0  0  0  0  0  0  0  0  0  0  0
    6.2299  -12.2967   26.5745 C   0  0  0  0  0  0  0  0  0  0  0  0
    7.3070  -11.6381   27.0830 C   0  0  0  0  0  0  0  0  0  0  0  0
    8.4885  -12.3079   27.2725 C   0  0  0  0  0  0  0  0  0  0  0  0
    8.5487  -13.6468   26.9372 C   0  0  0  0  0  0  0  0  0  0  0  0
    7.4705  -14.3382   26.4198 C   0  0  0  0  0  0  0  0  0  0  0  0
   10.3761  -17.7006   25.2934 C   0  0  0  0  0  0  0  0  0  0  0  0
   10.0760  -18.8892   24.9348 O   0  0  0  0  0  0  0  0  0  0  0  0
   11.6192  -17.5053   25.9054 N   0  0  0  0  0  0  0  0  0  0  0  0
   12.4896  -18.6015   26.3416 C   0  0  1  0  0  0  0  0  0  0  0  0
   13.8938  -18.0752   26.2547 C   0  0  0  0  0  0  0  0  0  0  0  0
   14.4065  -17.8995   24.8966 C   0  0  0  0  0  0  0  0  0  0  0  0
   13.7058  -17.3816   23.8316 C   0  0  0  0  0  0  0  0  0  0  0  0
   14.5269  -17.3913   22.7659 N   0  0  0  0  0  0  0  0  0  0  0  0
   15.7209  -17.8981   23.1255 C   0  0  0  0  0  0  0  0  0  0  0  0
   15.6269  -18.2062   24.4444 N   0  0  0  0  0  0  0  0  0  0  0  0
   12.1813  -18.9848   27.7440 C   0  0  0  0  0  0  0  0  0  0  0  0
   12.9207  -19.9945   28.3276 O   0  0  0  0  0  0  0  0  0  0  0  0
   11.2730  -18.4126   28.3936 O   0  0  0  0  0  0  0  0  0  0  0  0
  2  1  1  0
  3  2  2  0
  4  3  1  0
  5 11  1  0
  5  4  2  0
  6  5  1  0
  7  8  1  1
  7  9  1  0
  7  6  1  0
  9 10  2  0
 11 12  2  0
 12  2  1  0
 13 14  1  0
 13  9  1  0
 14 25  1  0
 14 15  1  1
 16 15  1  0
 17 16  2  0
 18 17  1  0
 19 18  1  0
 19 24  2  0
 20 19  1  0
 21 20  2  0
 21 22  1  0
 22 23  2  0
 23 24  1  0
 24 16  1  0
 25 27  1  0
 25 26  2  0
 27 28  1  0
 28 29  1  1
 29 30  1  0
 30 31  2  0
 31 32  1  0
 33 32  1  0
 34 30  1  0
 34 33  2  0
 35 28  1  0
 35 36  1  0
 37 35  2  0
M  END
$$$$
