YWH.pdb
     RDKit          3D

 37 40  0  0  1  0  0  0  0  0999 V2000
    5.7658  -21.7488   17.4634 O   0  0  0  0  0  0  0  0  0  0  0  0
    6.5264  -21.2242   18.5158 C   0  0  0  0  0  0  0  0  0  0  0  0
    6.5113  -19.8569   18.6816 C   0  0  0  0  0  0  0  0  0  0  0  0
    7.2485  -19.3080   19.7073 C   0  0  0  0  0  0  0  0  0  0  0  0
    7.9810  -20.1343   20.5403 C   0  0  0  0  0  0  0  0  0  0  0  0
    8.7645  -19.4845   21.6393 C   0  0  0  0  0  0  0  0  0  0  0  0
    8.4151  -18.0235   21.7615 C   0  0  2  0  0  0  0  0  0  0  0  0
    8.8274  -17.3593   20.5438 N   0  0  0  0  0  0  0  0  0  0  0  0
    8.9898  -17.3685   22.9396 C   0  0  0  0  0  0  0  0  0  0  0  0
   10.0581  -16.7110   22.8153 O   0  0  0  0  0  0  0  0  0  0  0  0
    7.9967  -21.5081   20.3743 C   0  0  0  0  0  0  0  0  0  0  0  0
    7.2575  -22.0454   19.3478 C   0  0  0  0  0  0  0  0  0  0  0  0
    8.4237  -17.4183   24.2368 N   0  0  0  0  0  0  0  0  0  0  0  0
    9.0756  -16.8890   25.3872 C   0  0  1  0  0  0  0  0  0  0  0  0
    8.1829  -16.3982   26.4627 C   0  0  0  0  0  0  0  0  0  0  0  0
    7.1592  -15.4240   26.0885 C   0  0  0  0  0  0  0  0  0  0  0  0
    5.8687  -15.5209   25.6359 C   0  0  0  0  0  0  0  0  0  0  0  0
    5.3374  -14.2753   25.4417 N   0  0  0  0  0  0  0  0  0  0  0  0
    6.2888  -13.3857   25.7704 C   0  0  0  0  0  0  0  0  0  0  0  0
    6.2700  -11.9871   25.7555 C   0  0  0  0  0  0  0  0  0  0  0  0
    7.3599  -11.2651   26.1340 C   0  0  0  0  0  0  0  0  0  0  0  0
    8.4995  -11.9120   26.5380 C   0  0  0  0  0  0  0  0  0  0  0  0
    8.5051  -13.2935   26.5483 C   0  0  0  0  0  0  0  0  0  0  0  0
    7.4128  -14.0495   26.1693 C   0  0  0  0  0  0  0  0  0  0  0  0
   10.0618  -17.8527   25.9842 C   0  0  0  0  0  0  0  0  0  0  0  0
    9.7408  -19.0857   26.0734 O   0  0  0  0  0  0  0  0  0  0  0  0
   11.3256  -17.4789   26.4545 N   0  0  0  0  0  0  0  0  0  0  0  0
   12.2254  -18.3875   27.1718 C   0  0  1  0  0  0  0  0  0  0  0  0
   13.6166  -17.8853   26.9098 C   0  0  0  0  0  0  0  0  0  0  0  0
   14.0621  -17.9916   25.5211 C   0  0  0  0  0  0  0  0  0  0  0  0
   13.3781  -18.6115   24.5008 C   0  0  0  0  0  0  0  0  0  0  0  0
   14.1223  -18.4930   23.3863 N   0  0  0  0  0  0  0  0  0  0  0  0
   15.2519  -17.8190   23.6721 C   0  0  0  0  0  0  0  0  0  0  0  0
   15.1964  -17.5182   24.9948 N   0  0  0  0  0  0  0  0  0  0  0  0
   11.9444  -18.3542   28.6309 C   0  0  0  0  0  0  0  0  0  0  0  0
   12.6798  -19.1767   29.4612 O   0  0  0  0  0  0  0  0  0  0  0  0
   11.0622  -17.6013   29.1098 O   0  0  0  0  0  0  0  0  0  0  0  0
  2  1  1  0
  3  2  2  0
  4  3  1  0
  5 11  1  0
  5  4  2  0
  6  5  1  0
  7  8  1  6
  7  9  1  0
  7  6  1  0
  9 10  2  0
 11 12  2  0
 12  2  1  0
 13 14  1  0
 13  9  1  0
 14 25  1  0
 14 15  1  1
 16 15  1  0
 17 16  2  0
 18 17  1  0
 19 18  1  0
 19 24  2  0
 20 19  1  0
 21 20  2  0
 21 22  1  0
 22 23  2  0
 23 24  1  0
 24 16  1  0
 25 27  1  0
 25 26  2  0
 27 28  1  0
 28 29  1  1
 29 30  1  0
 30 31  2  0
 31 32  1  0
 33 32  1  0
 34 30  1  0
 34 33  2  0
 35 28  1  0
 35 36  1  0
 37 35  2  0
M  END
$$$$
