YWH.pdb
     RDKit          3D

 37 40  0  0  1  0  0  0  0  0999 V2000
    7.4635  -13.5381   16.0661 O   0  0  0  0  0  0  0  0  0  0  0  0
    7.8104  -13.6908   17.4143 C   0  0  0  0  0  0  0  0  0  0  0  0
    6.8538  -13.3649   18.3502 C   0  0  0  0  0  0  0  0  0  0  0  0
    7.1621  -13.5034   19.6853 C   0  0  0  0  0  0  0  0  0  0  0  0
    8.4140  -13.9625   20.0533 C   0  0  0  0  0  0  0  0  0  0  0  0
    8.6960  -14.0942   21.5185 C   0  0  0  0  0  0  0  0  0  0  0  0
    9.2775  -15.4476   21.8376 C   0  0  2  0  0  0  0  0  0  0  0  0
    8.3283  -16.4554   21.4166 N   0  0  0  0  0  0  0  0  0  0  0  0
    9.6430  -15.6236   23.2457 C   0  0  0  0  0  0  0  0  0  0  0  0
   10.4968  -14.8511   23.7586 O   0  0  0  0  0  0  0  0  0  0  0  0
    9.3756  -14.2902   19.1135 C   0  0  0  0  0  0  0  0  0  0  0  0
    9.0574  -14.1482   17.7840 C   0  0  0  0  0  0  0  0  0  0  0  0
    9.0976  -16.6179   24.0941 N   0  0  0  0  0  0  0  0  0  0  0  0
    9.4246  -16.7210   25.4764 C   0  0  1  0  0  0  0  0  0  0  0  0
    8.3016  -16.5118   26.4197 C   0  0  0  0  0  0  0  0  0  0  0  0
    7.3345  -15.4678   26.0857 C   0  0  0  0  0  0  0  0  0  0  0  0
    6.1014  -15.4646   25.4866 C   0  0  0  0  0  0  0  0  0  0  0  0
    5.6059  -14.1910   25.4233 N   0  0  0  0  0  0  0  0  0  0  0  0
    6.5228  -13.3836   25.9819 C   0  0  0  0  0  0  0  0  0  0  0  0
    6.5180  -11.9979   26.1731 C   0  0  0  0  0  0  0  0  0  0  0  0
    7.5655  -11.3669   26.7707 C   0  0  0  0  0  0  0  0  0  0  0  0
    8.6475  -12.0947   27.1952 C   0  0  0  0  0  0  0  0  0  0  0  0
    8.6398  -13.4625   27.0005 C   0  0  0  0  0  0  0  0  0  0  0  0
    7.5896  -14.1268   26.3971 C   0  0  0  0  0  0  0  0  0  0  0  0
   10.0985  -18.0211   25.8129 C   0  0  0  0  0  0  0  0  0  0  0  0
    9.5249  -19.1145   25.4855 O   0  0  0  0  0  0  0  0  0  0  0  0
   11.3303  -18.1100   26.4708 N   0  0  0  0  0  0  0  0  0  0  0  0
   11.8798  -19.3631   26.9976 C   0  0  1  0  0  0  0  0  0  0  0  0
   13.3674  -19.1664   27.0667 C   0  0  0  0  0  0  0  0  0  0  0  0
   14.0396  -19.0654   25.7720 C   0  0  0  0  0  0  0  0  0  0  0  0
   13.4639  -19.3016   24.5447 C   0  0  0  0  0  0  0  0  0  0  0  0
   14.4117  -19.1049   23.6104 N   0  0  0  0  0  0  0  0  0  0  0  0
   15.5645  -18.7528   24.2095 C   0  0  0  0  0  0  0  0  0  0  0  0
   15.3147  -18.7340   25.5439 N   0  0  0  0  0  0  0  0  0  0  0  0
   11.3442  -19.6359   28.3568 C   0  0  0  0  0  0  0  0  0  0  0  0
   11.7340  -20.7958   28.9967 O   0  0  0  0  0  0  0  0  0  0  0  0
   10.5555  -18.8395   28.9208 O   0  0  0  0  0  0  0  0  0  0  0  0
  2  1  1  0
  3  2  2  0
  4  3  1  0
  5 11  1  0
  5  4  2  0
  6  5  1  0
  7  8  1  1
  7  9  1  0
  7  6  1  0
  9 10  2  0
 11 12  2  0
 12  2  1  0
 13 14  1  0
 13  9  1  0
 14 25  1  0
 14 15  1  1
 16 15  1  0
 17 16  2  0
 18 17  1  0
 19 18  1  0
 19 24  2  0
 20 19  1  0
 21 20  2  0
 21 22  1  0
 22 23  2  0
 23 24  1  0
 24 16  1  0
 25 27  1  0
 25 26  2  0
 27 28  1  0
 28 29  1  1
 29 30  1  0
 30 31  2  0
 31 32  1  0
 33 32  1  0
 34 30  1  0
 34 33  2  0
 35 28  1  0
 35 36  1  0
 37 35  2  0
M  END
$$$$
