YWH.pdb
     RDKit          3D

 37 40  0  0  1  0  0  0  0  0999 V2000
    8.2163  -14.4268   12.9391 O   0  0  0  0  0  0  0  0  0  0  0  0
    8.2724  -14.6795   14.3154 C   0  0  0  0  0  0  0  0  0  0  0  0
    8.5397  -15.9729   14.7065 C   0  0  0  0  0  0  0  0  0  0  0  0
    8.6021  -16.2560   16.0529 C   0  0  0  0  0  0  0  0  0  0  0  0
    8.3967  -15.2446   16.9739 C   0  0  0  0  0  0  0  0  0  0  0  0
    8.4760  -15.6080   18.4250 C   0  0  0  0  0  0  0  0  0  0  0  0
    9.3038  -14.6065   19.1887 C   0  0  2  0  0  0  0  0  0  0  0  0
   10.6610  -14.6721   18.6908 N   0  0  0  0  0  0  0  0  0  0  0  0
    9.2667  -14.7858   20.6426 C   0  0  0  0  0  0  0  0  0  0  0  0
   10.2536  -15.3161   21.2202 O   0  0  0  0  0  0  0  0  0  0  0  0
    8.1281  -13.9449   16.5817 C   0  0  0  0  0  0  0  0  0  0  0  0
    8.0682  -13.6734   15.2358 C   0  0  0  0  0  0  0  0  0  0  0  0
    8.1822  -14.3996   21.4674 N   0  0  0  0  0  0  0  0  0  0  0  0
    8.1994  -14.5382   22.8848 C   0  0  1  0  0  0  0  0  0  0  0  0
    7.1379  -13.8068   23.6147 C   0  0  0  0  0  0  0  0  0  0  0  0
    7.0776  -13.9881   25.0641 C   0  0  0  0  0  0  0  0  0  0  0  0
    7.0504  -15.0825   25.8892 C   0  0  0  0  0  0  0  0  0  0  0  0
    7.0020  -14.6904   27.1990 N   0  0  0  0  0  0  0  0  0  0  0  0
    6.9984  -13.3471   27.2079 C   0  0  0  0  0  0  0  0  0  0  0  0
    6.9576  -12.4452   28.2764 C   0  0  0  0  0  0  0  0  0  0  0  0
    6.9622  -11.1010   28.0625 C   0  0  0  0  0  0  0  0  0  0  0  0
    7.0073  -10.6147   26.7811 C   0  0  0  0  0  0  0  0  0  0  0  0
    7.0474  -11.5160   25.7348 C   0  0  0  0  0  0  0  0  0  0  0  0
    7.0438  -12.8843   25.9247 C   0  0  0  0  0  0  0  0  0  0  0  0
    8.1804  -15.9754   23.3227 C   0  0  0  0  0  0  0  0  0  0  0  0
    7.3189  -16.7647   22.8068 O   0  0  0  0  0  0  0  0  0  0  0  0
    9.0584  -16.5096   24.2724 N   0  0  0  0  0  0  0  0  0  0  0  0
    9.9082  -17.6783   24.0243 C   0  0  1  0  0  0  0  0  0  0  0  0
   10.6376  -17.3956   22.7420 C   0  0  0  0  0  0  0  0  0  0  0  0
   11.5122  -18.4712   22.2769 C   0  0  0  0  0  0  0  0  0  0  0  0
   11.7380  -19.6635   22.9257 C   0  0  0  0  0  0  0  0  0  0  0  0
   12.6013  -20.3729   22.1763 N   0  0  0  0  0  0  0  0  0  0  0  0
   12.9259  -19.6662   21.0777 C   0  0  0  0  0  0  0  0  0  0  0  0
   12.2437  -18.4951   21.1579 N   0  0  0  0  0  0  0  0  0  0  0  0
   10.8848  -17.8562   25.1305 C   0  0  0  0  0  0  0  0  0  0  0  0
   10.8951  -16.9294   26.1541 O   0  0  0  0  0  0  0  0  0  0  0  0
   11.6866  -18.8212   25.1460 O   0  0  0  0  0  0  0  0  0  0  0  0
  2  1  1  0
  3  2  2  0
  4  3  1  0
  5 11  1  0
  5  4  2  0
  6  5  1  0
  7  8  1  6
  7  9  1  0
  7  6  1  0
  9 10  2  0
 11 12  2  0
 12  2  1  0
 13 14  1  0
 13  9  1  0
 14 25  1  0
 14 15  1  1
 16 15  1  0
 17 16  2  0
 18 17  1  0
 19 18  1  0
 19 24  2  0
 20 19  1  0
 21 20  2  0
 21 22  1  0
 22 23  2  0
 23 24  1  0
 24 16  1  0
 25 27  1  0
 25 26  2  0
 27 28  1  0
 28 29  1  6
 29 30  1  0
 30 31  2  0
 31 32  1  0
 33 32  1  0
 34 30  1  0
 34 33  2  0
 35 28  1  0
 35 36  1  0
 37 35  2  0
M  END
$$$$
