YWH.pdb
     RDKit          3D

 37 40  0  0  1  0  0  0  0  0999 V2000
   10.4737  -19.1091   13.5459 O   0  0  0  0  0  0  0  0  0  0  0  0
   10.3783  -18.8111   14.9110 C   0  0  0  0  0  0  0  0  0  0  0  0
   11.5529  -18.5460   15.5799 C   0  0  0  0  0  0  0  0  0  0  0  0
   11.4949  -18.2490   16.9235 C   0  0  0  0  0  0  0  0  0  0  0  0
   10.2698  -18.2240   17.5654 C   0  0  0  0  0  0  0  0  0  0  0  0
   10.2647  -17.8954   19.0268 C   0  0  0  0  0  0  0  0  0  0  0  0
   10.1537  -16.4083   19.2462 C   0  0  2  0  0  0  0  0  0  0  0  0
   11.3432  -15.7845   18.7078 N   0  0  0  0  0  0  0  0  0  0  0  0
    9.9448  -16.0250   20.6450 C   0  0  0  0  0  0  0  0  0  0  0  0
   10.9185  -16.0677   21.4443 O   0  0  0  0  0  0  0  0  0  0  0  0
    9.0894  -18.4903   16.8939 C   0  0  0  0  0  0  0  0  0  0  0  0
    9.1587  -18.7854   15.5534 C   0  0  0  0  0  0  0  0  0  0  0  0
    8.7043  -15.5999   21.1798 N   0  0  0  0  0  0  0  0  0  0  0  0
    8.4921  -15.3911   22.5726 C   0  0  1  0  0  0  0  0  0  0  0  0
    7.1334  -14.9416   22.9552 C   0  0  0  0  0  0  0  0  0  0  0  0
    6.8191  -14.9050   24.3824 C   0  0  0  0  0  0  0  0  0  0  0  0
    6.2079  -15.7748   25.2482 C   0  0  0  0  0  0  0  0  0  0  0  0
    6.1754  -15.2467   26.5098 N   0  0  0  0  0  0  0  0  0  0  0  0
    6.7654  -14.0415   26.4475 C   0  0  0  0  0  0  0  0  0  0  0  0
    6.9952  -13.0891   27.4459 C   0  0  0  0  0  0  0  0  0  0  0  0
    7.6206  -11.9132   27.1655 C   0  0  0  0  0  0  0  0  0  0  0  0
    8.0355  -11.6501   25.8852 C   0  0  0  0  0  0  0  0  0  0  0  0
    7.8025  -12.5990   24.9084 C   0  0  0  0  0  0  0  0  0  0  0  0
    7.1703  -13.7998   25.1667 C   0  0  0  0  0  0  0  0  0  0  0  0
    8.8487  -16.5962   23.3960 C   0  0  0  0  0  0  0  0  0  0  0  0
    8.6093  -17.7581   22.9225 O   0  0  0  0  0  0  0  0  0  0  0  0
    9.4339  -16.5243   24.6651 N   0  0  0  0  0  0  0  0  0  0  0  0
   10.0828  -17.6616   25.3247 C   0  0  1  0  0  0  0  0  0  0  0  0
   11.1972  -18.0889   24.4126 C   0  0  0  0  0  0  0  0  0  0  0  0
   12.0177  -19.1916   24.9117 C   0  0  0  0  0  0  0  0  0  0  0  0
   11.6327  -20.1219   25.8495 C   0  0  0  0  0  0  0  0  0  0  0  0
   12.6688  -20.9600   26.0348 N   0  0  0  0  0  0  0  0  0  0  0  0
   13.6926  -20.5874   25.2444 C   0  0  0  0  0  0  0  0  0  0  0  0
   13.2714  -19.4938   24.5589 N   0  0  0  0  0  0  0  0  0  0  0  0
   10.6382  -17.2525   26.6411 C   0  0  0  0  0  0  0  0  0  0  0  0
   10.4426  -15.9520   27.0620 O   0  0  0  0  0  0  0  0  0  0  0  0
   11.2721  -18.0599   27.3627 O   0  0  0  0  0  0  0  0  0  0  0  0
  2  1  1  0
  3  2  2  0
  4  3  1  0
  5 11  1  0
  5  4  2  0
  6  5  1  0
  7  8  1  1
  7  9  1  0
  7  6  1  0
  9 10  2  0
 11 12  2  0
 12  2  1  0
 13 14  1  0
 13  9  1  0
 14 25  1  0
 14 15  1  6
 16 15  1  0
 17 16  2  0
 18 17  1  0
 19 18  1  0
 19 24  2  0
 20 19  1  0
 21 20  2  0
 21 22  1  0
 22 23  2  0
 23 24  1  0
 24 16  1  0
 25 27  1  0
 25 26  2  0
 27 28  1  0
 28 29  1  6
 29 30  1  0
 30 31  2  0
 31 32  1  0
 33 32  1  0
 34 30  1  0
 34 33  2  0
 35 28  1  0
 35 36  1  0
 37 35  2  0
M  END
$$$$
