KGI.pdb
     RDKit          3D

 22 21  0  0  1  0  0  0  0  0999 V2000
    9.8807  -15.5051   18.0064 N   0  0  0  0  0  0  0  0  0  0  0  0
    9.3751  -14.6032   18.9767 C   0  0  1  0  0  0  0  0  0  0  0  0
    8.6397  -13.4651   18.3003 C   0  0  0  0  0  0  0  0  0  0  0  0
    7.4525  -14.0239   17.5675 C   0  0  0  0  0  0  0  0  0  0  0  0
    7.4832  -13.6561   16.0779 C   0  0  0  0  0  0  0  0  0  0  0  0
    7.7937  -14.9079   15.2690 C   0  0  0  0  0  0  0  0  0  0  0  0
    7.6504  -14.6962   13.8448 N   0  0  0  0  0  0  0  0  0  0  0  0
    8.6066  -15.1889   20.0818 C   0  0  0  0  0  0  0  0  0  0  0  0
    8.7942  -16.4163   20.3238 O   0  0  0  0  0  0  0  0  0  0  0  0
    7.6642  -14.5147   20.9099 N   0  0  0  0  0  0  0  0  0  0  0  0
    7.0733  -15.1763   22.0646 C   0  0  0  0  0  0  0  0  0  0  0  0
    7.8463  -14.9521   23.3144 C   0  0  0  0  0  0  0  0  0  0  0  0
    9.0701  -14.7013   23.2608 O   0  0  0  0  0  0  0  0  0  0  0  0
    5.8336  -11.7961   27.3333 C   0  0  0  0  0  0  0  0  0  0  0  0
    6.0460  -13.1778   26.7290 C   0  0  0  0  0  0  0  0  0  0  0  0
    7.4981  -13.3301   26.4199 C   0  0  2  0  0  0  0  0  0  0  0  0
    7.9177  -12.1223   25.5686 C   0  0  0  0  0  0  0  0  0  0  0  0
    7.9442  -14.6091   25.8316 C   0  0  2  0  0  0  0  0  0  0  0  0
    7.2656  -15.0121   24.6148 N   0  0  0  0  0  0  0  0  0  0  0  0
    7.8008  -15.6892   26.8646 C   0  0  0  0  0  0  0  0  0  0  0  0
    8.5862  -15.6287   27.9943 O   0  0  0  0  0  0  0  0  0  0  0  0
    6.9976  -16.6031   26.6974 O   0  0  0  0  0  0  0  0  0  0  0  0
  2  1  1  6
  2  3  1  0
  4  3  1  0
  5  4  1  0
  6  5  1  0
  7  6  1  0
  8  9  2  0
  8  2  1  0
 10  8  1  0
 11 12  1  0
 11 10  1  0
 12 19  1  0
 13 12  2  0
 15 14  1  0
 16 15  1  0
 16 17  1  6
 18 16  1  0
 18 20  1  0
 18 19  1  6
 20 22  2  0
 20 21  1  0
M  END
$$$$
