KGI.pdb
     RDKit          3D

 22 21  0  0  1  0  0  0  0  0999 V2000
    5.6500  -20.5338   21.5555 N   0  0  0  0  0  0  0  0  0  0  0  0
    6.6548  -20.7363   22.5352 C   0  0  1  0  0  0  0  0  0  0  0  0
    8.0144  -20.8417   21.8763 C   0  0  0  0  0  0  0  0  0  0  0  0
    7.8228  -21.0007   20.3942 C   0  0  0  0  0  0  0  0  0  0  0  0
    8.3448  -19.7812   19.6226 C   0  0  0  0  0  0  0  0  0  0  0  0
    8.1721  -20.0326   18.1311 C   0  0  0  0  0  0  0  0  0  0  0  0
    8.5345  -18.8832   17.3304 N   0  0  0  0  0  0  0  0  0  0  0  0
    6.6554  -19.8139   23.6772 C   0  0  0  0  0  0  0  0  0  0  0  0
    7.5216  -20.0152   24.5769 O   0  0  0  0  0  0  0  0  0  0  0  0
    5.7740  -18.7136   23.8786 N   0  0  0  0  0  0  0  0  0  0  0  0
    5.9305  -17.8280   25.0239 C   0  0  0  0  0  0  0  0  0  0  0  0
    6.9691  -16.7864   24.8083 C   0  0  0  0  0  0  0  0  0  0  0  0
    7.7012  -16.8282   23.7955 O   0  0  0  0  0  0  0  0  0  0  0  0
    6.5135  -11.4444   26.8546 C   0  0  0  0  0  0  0  0  0  0  0  0
    6.9107  -12.9137   26.9075 C   0  0  0  0  0  0  0  0  0  0  0  0
    7.5712  -13.2620   25.6153 C   0  0  2  0  0  0  0  0  0  0  0  0
    6.5880  -12.9160   24.4869 C   0  0  0  0  0  0  0  0  0  0  0  0
    8.1267  -14.6229   25.4733 C   0  0  2  0  0  0  0  0  0  0  0  0
    7.1972  -15.7098   25.7142 N   0  0  0  0  0  0  0  0  0  0  0  0
    9.3046  -14.7596   26.3943 C   0  0  0  0  0  0  0  0  0  0  0  0
    9.2340  -15.6728   27.4229 O   0  0  0  0  0  0  0  0  0  0  0  0
   10.3054  -14.0680   26.2264 O   0  0  0  0  0  0  0  0  0  0  0  0
  2  1  1  6
  2  3  1  0
  4  3  1  0
  5  4  1  0
  6  5  1  0
  7  6  1  0
  8  9  2  0
  8  2  1  0
 10  8  1  0
 11 12  1  0
 11 10  1  0
 12 19  1  0
 13 12  2  0
 15 14  1  0
 16 15  1  0
 16 17  1  6
 18 16  1  0
 18 20  1  0
 18 19  1  1
 20 22  2  0
 20 21  1  0
M  END
$$$$
