KGI.pdb
     RDKit          3D

 22 21  0  0  1  0  0  0  0  0999 V2000
    6.6803  -15.2283   19.0431 N   0  0  0  0  0  0  0  0  0  0  0  0
    7.7190  -15.4264   19.9878 C   0  0  1  0  0  0  0  0  0  0  0  0
    8.7747  -14.3509   19.8378 C   0  0  0  0  0  0  0  0  0  0  0  0
   10.0816  -15.0020   19.4819 C   0  0  0  0  0  0  0  0  0  0  0  0
   11.2178  -13.9747   19.3872 C   0  0  0  0  0  0  0  0  0  0  0  0
   12.5258  -14.7107   19.1324 C   0  0  0  0  0  0  0  0  0  0  0  0
   13.6328  -13.8080   18.9013 N   0  0  0  0  0  0  0  0  0  0  0  0
    7.3100  -15.6193   21.3844 C   0  0  0  0  0  0  0  0  0  0  0  0
    6.5852  -14.7195   21.8994 O   0  0  0  0  0  0  0  0  0  0  0  0
    7.6507  -16.7184   22.2234 N   0  0  0  0  0  0  0  0  0  0  0  0
    7.2279  -16.7571   23.6163 C   0  0  0  0  0  0  0  0  0  0  0  0
    8.2097  -16.1211   24.5337 C   0  0  0  0  0  0  0  0  0  0  0  0
    9.3268  -15.7575   24.1055 O   0  0  0  0  0  0  0  0  0  0  0  0
    6.7112  -12.6904   28.8333 C   0  0  0  0  0  0  0  0  0  0  0  0
    7.1172  -14.0752   28.3463 C   0  0  0  0  0  0  0  0  0  0  0  0
    8.2417  -13.9146   27.3783 C   0  0  2  0  0  0  0  0  0  0  0  0
    7.7838  -12.9212   26.2999 C   0  0  0  0  0  0  0  0  0  0  0  0
    8.8265  -15.1394   26.7962 C   0  0  2  0  0  0  0  0  0  0  0  0
    7.9551  -15.8962   25.9180 N   0  0  0  0  0  0  0  0  0  0  0  0
    9.3000  -16.0237   27.9134 C   0  0  0  0  0  0  0  0  0  0  0  0
   10.3413  -15.5880   28.7024 O   0  0  0  0  0  0  0  0  0  0  0  0
    8.7640  -17.1107   28.1121 O   0  0  0  0  0  0  0  0  0  0  0  0
  2  1  1  6
  2  3  1  0
  4  3  1  0
  5  4  1  0
  6  5  1  0
  7  6  1  0
  8  9  2  0
  8  2  1  0
 10  8  1  0
 11 12  1  0
 11 10  1  0
 12 19  1  0
 13 12  2  0
 15 14  1  0
 16 15  1  0
 16 17  1  6
 18 16  1  0
 18 20  1  0
 18 19  1  1
 20 22  2  0
 20 21  1  0
M  END
$$$$
