KGI.pdb
     RDKit          3D

 22 21  0  0  1  0  0  0  0  0999 V2000
    8.6215  -16.6953   18.5407 N   0  0  0  0  0  0  0  0  0  0  0  0
    8.4980  -15.4369   19.1825 C   0  0  1  0  0  0  0  0  0  0  0  0
    7.7937  -14.4523   18.2725 C   0  0  0  0  0  0  0  0  0  0  0  0
    8.3744  -14.5692   16.8913 C   0  0  0  0  0  0  0  0  0  0  0  0
    7.7057  -13.5945   15.9125 C   0  0  0  0  0  0  0  0  0  0  0  0
    8.3564  -13.7479   14.5448 C   0  0  0  0  0  0  0  0  0  0  0  0
    7.6968  -12.9594   13.5265 N   0  0  0  0  0  0  0  0  0  0  0  0
    7.9402  -15.4431   20.5403 C   0  0  0  0  0  0  0  0  0  0  0  0
    7.9024  -14.3353   21.1501 O   0  0  0  0  0  0  0  0  0  0  0  0
    7.4392  -16.5741   21.2459 N   0  0  0  0  0  0  0  0  0  0  0  0
    6.7629  -16.4193   22.5262 C   0  0  0  0  0  0  0  0  0  0  0  0
    7.6452  -15.8490   23.5779 C   0  0  0  0  0  0  0  0  0  0  0  0
    8.8871  -15.8628   23.4328 O   0  0  0  0  0  0  0  0  0  0  0  0
    5.6253  -11.6249   26.6446 C   0  0  0  0  0  0  0  0  0  0  0  0
    6.4110  -12.4854   25.6640 C   0  0  0  0  0  0  0  0  0  0  0  0
    7.2450  -13.4408   26.4509 C   0  0  2  0  0  0  0  0  0  0  0  0
    8.1910  -12.6104   27.3313 C   0  0  0  0  0  0  0  0  0  0  0  0
    7.9587  -14.5003   25.7101 C   0  0  2  0  0  0  0  0  0  0  0  0
    7.1522  -15.2732   24.7851 N   0  0  0  0  0  0  0  0  0  0  0  0
    8.6078  -15.4246   26.6994 C   0  0  0  0  0  0  0  0  0  0  0  0
    9.8419  -15.0842   27.2074 O   0  0  0  0  0  0  0  0  0  0  0  0
    8.0430  -16.4597   27.0425 O   0  0  0  0  0  0  0  0  0  0  0  0
  2  1  1  6
  2  3  1  0
  4  3  1  0
  5  4  1  0
  6  5  1  0
  7  6  1  0
  8  9  2  0
  8  2  1  0
 10  8  1  0
 11 12  1  0
 11 10  1  0
 12 19  1  0
 13 12  2  0
 15 14  1  0
 16 15  1  0
 16 17  1  6
 18 16  1  0
 18 20  1  0
 18 19  1  1
 20 22  2  0
 20 21  1  0
M  END
$$$$
