KGI.pdb
     RDKit          3D

 22 21  0  0  1  0  0  0  0  0999 V2000
    7.2553  -21.0921   23.2017 N   0  0  0  0  0  0  0  0  0  0  0  0
    6.1401  -20.3327   22.7653 C   0  0  1  0  0  0  0  0  0  0  0  0
    4.9671  -21.2455   22.4744 C   0  0  0  0  0  0  0  0  0  0  0  0
    5.1422  -21.8365   21.1038 C   0  0  0  0  0  0  0  0  0  0  0  0
    3.9490  -21.5164   20.1934 C   0  0  0  0  0  0  0  0  0  0  0  0
    4.1297  -22.2483   18.8708 C   0  0  0  0  0  0  0  0  0  0  0  0
    3.0844  -21.9386   17.9195 N   0  0  0  0  0  0  0  0  0  0  0  0
    5.7626  -19.1822   23.5952 C   0  0  0  0  0  0  0  0  0  0  0  0
    5.0031  -18.3189   23.0677 O   0  0  0  0  0  0  0  0  0  0  0  0
    6.1692  -18.9353   24.9375 N   0  0  0  0  0  0  0  0  0  0  0  0
    5.8109  -17.6961   25.6131 C   0  0  0  0  0  0  0  0  0  0  0  0
    6.8098  -16.6156   25.4015 C   0  0  0  0  0  0  0  0  0  0  0  0
    7.7783  -16.7963   24.6316 O   0  0  0  0  0  0  0  0  0  0  0  0
    5.2040  -11.9388   27.2740 C   0  0  0  0  0  0  0  0  0  0  0  0
    5.8171  -12.4817   25.9899 C   0  0  0  0  0  0  0  0  0  0  0  0
    7.2094  -12.9258   26.2928 C   0  0  2  0  0  0  0  0  0  0  0  0
    8.1576  -11.7967   25.8619 C   0  0  0  0  0  0  0  0  0  0  0  0
    7.6378  -14.2414   25.7767 C   0  0  2  0  0  0  0  0  0  0  0  0
    6.7370  -15.3459   26.0451 N   0  0  0  0  0  0  0  0  0  0  0  0
    8.9955  -14.5574   26.3344 C   0  0  0  0  0  0  0  0  0  0  0  0
   10.1056  -14.0648   25.6848 O   0  0  0  0  0  0  0  0  0  0  0  0
    9.1043  -15.2412   27.3488 O   0  0  0  0  0  0  0  0  0  0  0  0
  2  1  1  1
  2  3  1  0
  4  3  1  0
  5  4  1  0
  6  5  1  0
  7  6  1  0
  8  9  2  0
  8  2  1  0
 10  8  1  0
 11 12  1  0
 11 10  1  0
 12 19  1  0
 13 12  2  0
 15 14  1  0
 16 15  1  0
 16 17  1  6
 18 16  1  0
 18 20  1  0
 18 19  1  1
 20 22  2  0
 20 21  1  0
M  END
$$$$
