KGI.pdb
     RDKit          3D

 22 21  0  0  1  0  0  0  0  0999 V2000
    8.0808  -20.3529   20.9918 N   0  0  0  0  0  0  0  0  0  0  0  0
    7.8152  -19.0890   20.4064 C   0  0  1  0  0  0  0  0  0  0  0  0
    7.0012  -19.2592   19.1407 C   0  0  0  0  0  0  0  0  0  0  0  0
    7.8698  -19.8874   18.0875 C   0  0  0  0  0  0  0  0  0  0  0  0
    8.3428  -18.8551   17.0552 C   0  0  0  0  0  0  0  0  0  0  0  0
    9.1221  -19.5741   15.9628 C   0  0  0  0  0  0  0  0  0  0  0  0
    9.5472  -18.6808   14.9068 N   0  0  0  0  0  0  0  0  0  0  0  0
    7.2642  -18.0564   21.2926 C   0  0  0  0  0  0  0  0  0  0  0  0
    7.2676  -16.8677   20.8600 O   0  0  0  0  0  0  0  0  0  0  0  0
    6.7280  -18.2565   22.5967 N   0  0  0  0  0  0  0  0  0  0  0  0
    6.1978  -17.1411   23.3680 C   0  0  0  0  0  0  0  0  0  0  0  0
    7.2598  -16.3602   24.0553 C   0  0  0  0  0  0  0  0  0  0  0  0
    8.4280  -16.3588   23.6094 O   0  0  0  0  0  0  0  0  0  0  0  0
    5.7148  -11.7400   26.6786 C   0  0  0  0  0  0  0  0  0  0  0  0
    6.4594  -12.6382   25.6995 C   0  0  0  0  0  0  0  0  0  0  0  0
    7.4113  -13.4836   26.4783 C   0  0  2  0  0  0  0  0  0  0  0  0
    8.4952  -12.5548   27.0457 C   0  0  0  0  0  0  0  0  0  0  0  0
    7.9861  -14.6666   25.8068 C   0  0  2  0  0  0  0  0  0  0  0  0
    7.0277  -15.5917   25.2331 N   0  0  0  0  0  0  0  0  0  0  0  0
    8.8609  -15.3965   26.7847 C   0  0  0  0  0  0  0  0  0  0  0  0
   10.1748  -15.0041   26.9137 O   0  0  0  0  0  0  0  0  0  0  0  0
    8.4060  -16.3224   27.4512 O   0  0  0  0  0  0  0  0  0  0  0  0
  2  1  1  1
  2  3  1  0
  4  3  1  0
  5  4  1  0
  6  5  1  0
  7  6  1  0
  8  9  2  0
  8  2  1  0
 10  8  1  0
 11 12  1  0
 11 10  1  0
 12 19  1  0
 13 12  2  0
 15 14  1  0
 16 15  1  0
 16 17  1  6
 18 16  1  0
 18 20  1  0
 18 19  1  1
 20 22  2  0
 20 21  1  0
M  END
$$$$
