KGI.pdb
     RDKit          3D

 22 21  0  0  1  0  0  0  0  0999 V2000
   10.2824  -18.1260   20.0079 N   0  0  0  0  0  0  0  0  0  0  0  0
    8.8742  -17.9776   20.0824 C   0  0  1  0  0  0  0  0  0  0  0  0
    8.1882  -19.1616   19.4333 C   0  0  0  0  0  0  0  0  0  0  0  0
    8.7836  -19.3784   18.0706 C   0  0  0  0  0  0  0  0  0  0  0  0
    8.1242  -20.5603   17.3471 C   0  0  0  0  0  0  0  0  0  0  0  0
    8.6714  -20.6352   15.9284 C   0  0  0  0  0  0  0  0  0  0  0  0
    8.0741  -21.7064   15.1607 N   0  0  0  0  0  0  0  0  0  0  0  0
    8.3152  -17.6603   21.4022 C   0  0  0  0  0  0  0  0  0  0  0  0
    8.9305  -18.1142   22.4101 O   0  0  0  0  0  0  0  0  0  0  0  0
    7.1437  -16.8943   21.6648 N   0  0  0  0  0  0  0  0  0  0  0  0
    6.7514  -16.5688   23.0288 C   0  0  0  0  0  0  0  0  0  0  0  0
    7.6842  -15.6143   23.6837 C   0  0  0  0  0  0  0  0  0  0  0  0
    8.6623  -15.1575   23.0527 O   0  0  0  0  0  0  0  0  0  0  0  0
    5.9485  -11.5115   27.0729 C   0  0  0  0  0  0  0  0  0  0  0  0
    6.4641  -12.9302   26.8700 C   0  0  0  0  0  0  0  0  0  0  0  0
    7.6290  -12.8711   25.9390 C   0  0  2  0  0  0  0  0  0  0  0  0
    7.1632  -12.1553   24.6622 C   0  0  0  0  0  0  0  0  0  0  0  0
    8.3368  -14.1332   25.6442 C   0  0  2  0  0  0  0  0  0  0  0  0
    7.5355  -15.1753   25.0316 N   0  0  0  0  0  0  0  0  0  0  0  0
    8.9436  -14.6521   26.9158 C   0  0  0  0  0  0  0  0  0  0  0  0
    8.5094  -15.8636   27.4063 O   0  0  0  0  0  0  0  0  0  0  0  0
    9.8081  -14.0035   27.4990 O   0  0  0  0  0  0  0  0  0  0  0  0
  2  1  1  1
  2  3  1  0
  4  3  1  0
  5  4  1  0
  6  5  1  0
  7  6  1  0
  8  9  2  0
  8  2  1  0
 10  8  1  0
 11 12  1  0
 11 10  1  0
 12 19  1  0
 13 12  2  0
 15 14  1  0
 16 15  1  0
 16 17  1  6
 18 16  1  0
 18 20  1  0
 18 19  1  1
 20 22  2  0
 20 21  1  0
M  END
$$$$
