KGI.pdb
     RDKit          3D

 22 21  0  0  1  0  0  0  0  0999 V2000
    9.0330  -18.4955   19.3091 N   0  0  0  0  0  0  0  0  0  0  0  0
    8.7813  -17.1098   19.4732 C   0  0  1  0  0  0  0  0  0  0  0  0
    8.0997  -16.5522   18.2411 C   0  0  0  0  0  0  0  0  0  0  0  0
    8.5785  -17.3133   17.0370 C   0  0  0  0  0  0  0  0  0  0  0  0
    7.4599  -17.4969   16.0025 C   0  0  0  0  0  0  0  0  0  0  0  0
    8.0588  -18.0776   14.7290 C   0  0  0  0  0  0  0  0  0  0  0  0
    7.0518  -18.4030   13.7422 N   0  0  0  0  0  0  0  0  0  0  0  0
    8.1116  -16.7056   20.7155 C   0  0  0  0  0  0  0  0  0  0  0  0
    7.8908  -15.4698   20.8723 O   0  0  0  0  0  0  0  0  0  0  0  0
    7.6874  -17.5655   21.7684 N   0  0  0  0  0  0  0  0  0  0  0  0
    6.9397  -17.0460   22.9048 C   0  0  0  0  0  0  0  0  0  0  0  0
    7.7829  -16.2451   23.8309 C   0  0  0  0  0  0  0  0  0  0  0  0
    9.0153  -16.4467   23.8930 O   0  0  0  0  0  0  0  0  0  0  0  0
    5.5788  -11.7048   26.5306 C   0  0  0  0  0  0  0  0  0  0  0  0
    6.4446  -12.4846   25.5499 C   0  0  0  0  0  0  0  0  0  0  0  0
    7.3397  -13.3839   26.3356 C   0  0  2  0  0  0  0  0  0  0  0  0
    8.2889  -12.4926   27.1506 C   0  0  0  0  0  0  0  0  0  0  0  0
    8.0612  -14.4443   25.6037 C   0  0  2  0  0  0  0  0  0  0  0  0
    7.2602  -15.2320   24.6865 N   0  0  0  0  0  0  0  0  0  0  0  0
    8.7186  -15.3544   26.6007 C   0  0  0  0  0  0  0  0  0  0  0  0
    8.0465  -16.4878   27.0015 O   0  0  0  0  0  0  0  0  0  0  0  0
    9.8321  -15.0860   27.0439 O   0  0  0  0  0  0  0  0  0  0  0  0
  2  1  1  6
  2  3  1  0
  4  3  1  0
  5  4  1  0
  6  5  1  0
  7  6  1  0
  8  9  2  0
  8  2  1  0
 10  8  1  0
 11 12  1  0
 11 10  1  0
 12 19  1  0
 13 12  2  0
 15 14  1  0
 16 15  1  0
 16 17  1  6
 18 16  1  0
 18 20  1  0
 18 19  1  1
 20 22  2  0
 20 21  1  0
M  END
$$$$
