KGI.pdb
     RDKit          3D

 22 21  0  0  1  0  0  0  0  0999 V2000
    6.7576  -16.6126   20.3384 N   0  0  0  0  0  0  0  0  0  0  0  0
    6.4342  -17.0991   21.6304 C   0  0  1  0  0  0  0  0  0  0  0  0
    5.6511  -18.3909   21.5222 C   0  0  0  0  0  0  0  0  0  0  0  0
    4.7587  -18.3162   20.3153 C   0  0  0  0  0  0  0  0  0  0  0  0
    4.0382  -19.6472   20.0617 C   0  0  0  0  0  0  0  0  0  0  0  0
    2.5560  -19.3712   19.8504 C   0  0  0  0  0  0  0  0  0  0  0  0
    1.8125  -20.5667   19.5164 N   0  0  0  0  0  0  0  0  0  0  0  0
    7.5381  -17.1918   22.5936 C   0  0  0  0  0  0  0  0  0  0  0  0
    7.2465  -17.5672   23.7660 O   0  0  0  0  0  0  0  0  0  0  0  0
    8.9087  -16.8970   22.3433 N   0  0  0  0  0  0  0  0  0  0  0  0
    9.9211  -17.1147   23.3670 C   0  0  0  0  0  0  0  0  0  0  0  0
   10.0693  -15.9555   24.2857 C   0  0  0  0  0  0  0  0  0  0  0  0
   11.2071  -15.5581   24.6187 O   0  0  0  0  0  0  0  0  0  0  0  0
    5.7731  -12.5153   26.6993 C   0  0  0  0  0  0  0  0  0  0  0  0
    6.6421  -13.7290   26.3972 C   0  0  0  0  0  0  0  0  0  0  0  0
    7.9596  -13.2418   25.8932 C   0  0  2  0  0  0  0  0  0  0  0  0
    7.7133  -12.5676   24.5351 C   0  0  0  0  0  0  0  0  0  0  0  0
    9.0750  -14.2083   25.8420 C   0  0  2  0  0  0  0  0  0  0  0  0
    8.9617  -15.2465   24.8357 N   0  0  0  0  0  0  0  0  0  0  0  0
    9.2265  -14.8394   27.1959 C   0  0  0  0  0  0  0  0  0  0  0  0
    8.8848  -16.1651   27.3467 O   0  0  0  0  0  0  0  0  0  0  0  0
    9.6471  -14.1800   28.1428 O   0  0  0  0  0  0  0  0  0  0  0  0
  2  1  1  6
  2  3  1  0
  4  3  1  0
  5  4  1  0
  6  5  1  0
  7  6  1  0
  8  9  2  0
  8  2  1  0
 10  8  1  0
 11 12  1  0
 11 10  1  0
 12 19  1  0
 13 12  2  0
 15 14  1  0
 16 15  1  0
 16 17  1  6
 18 16  1  0
 18 20  1  0
 18 19  1  6
 20 22  2  0
 20 21  1  0
M  END
$$$$
