KGI.pdb
     RDKit          3D

 22 21  0  0  1  0  0  0  0  0999 V2000
    7.0565  -16.5692   18.3151 N   0  0  0  0  0  0  0  0  0  0  0  0
    7.6327  -15.6143   19.1907 C   0  0  1  0  0  0  0  0  0  0  0  0
    7.1001  -14.2310   18.8800 C   0  0  0  0  0  0  0  0  0  0  0  0
    7.9256  -13.6312   17.7768 C   0  0  0  0  0  0  0  0  0  0  0  0
    7.5834  -14.2494   16.4144 C   0  0  0  0  0  0  0  0  0  0  0  0
    8.5665  -13.7262   15.3765 C   0  0  0  0  0  0  0  0  0  0  0  0
    8.3179  -14.2659   14.0572 N   0  0  0  0  0  0  0  0  0  0  0  0
    7.5851  -15.9241   20.6249 C   0  0  0  0  0  0  0  0  0  0  0  0
    6.4476  -15.9066   21.1782 O   0  0  0  0  0  0  0  0  0  0  0  0
    8.6937  -16.2394   21.4613 N   0  0  0  0  0  0  0  0  0  0  0  0
    8.5068  -16.5264   22.8766 C   0  0  0  0  0  0  0  0  0  0  0  0
    8.8755  -15.3812   23.7497 C   0  0  0  0  0  0  0  0  0  0  0  0
    9.7276  -14.5489   23.3693 O   0  0  0  0  0  0  0  0  0  0  0  0
    6.3010  -11.9529   27.5766 C   0  0  0  0  0  0  0  0  0  0  0  0
    6.4856  -13.0411   26.5271 C   0  0  0  0  0  0  0  0  0  0  0  0
    7.8590  -12.9080   25.9583 C   0  0  2  0  0  0  0  0  0  0  0  0
    7.7217  -12.2790   24.5637 C   0  0  0  0  0  0  0  0  0  0  0  0
    8.7163  -14.1104   25.9459 C   0  0  2  0  0  0  0  0  0  0  0  0
    8.3068  -15.1653   25.0388 N   0  0  0  0  0  0  0  0  0  0  0  0
    8.7986  -14.6563   27.3421 C   0  0  0  0  0  0  0  0  0  0  0  0
    8.1838  -15.8577   27.6171 O   0  0  0  0  0  0  0  0  0  0  0  0
    9.4036  -14.0381   28.2139 O   0  0  0  0  0  0  0  0  0  0  0  0
  2  1  1  6
  2  3  1  0
  4  3  1  0
  5  4  1  0
  6  5  1  0
  7  6  1  0
  8  9  2  0
  8  2  1  0
 10  8  1  0
 11 12  1  0
 11 10  1  0
 12 19  1  0
 13 12  2  0
 15 14  1  0
 16 15  1  0
 16 17  1  6
 18 16  1  0
 18 20  1  0
 18 19  1  6
 20 22  2  0
 20 21  1  0
M  END
$$$$
