QAM.pdb
     RDKit          3D

 23 22  0  0  1  0  0  0  0  0999 V2000
   17.6909  -30.3453  -11.3252 N   0  0  0  0  0  0  0  0  0  0  0  0
   18.8237  -30.5770  -12.2090 C   0  0  0  0  0  0  0  0  0  0  0  0
   18.6060  -31.3104  -13.2064 O   0  0  0  0  0  0  0  0  0  0  0  0
   20.1031  -29.9633  -11.8854 C   0  0  0  0  0  0  0  0  0  0  0  0
   20.1408  -29.0977  -10.6667 C   0  0  0  0  0  0  0  0  0  0  0  0
   19.8709  -27.6664  -11.0286 C   0  0  2  0  0  0  0  0  0  0  0  0
   20.9558  -27.1081  -11.7515 N   0  0  0  0  0  0  0  0  0  0  0  0
   19.6287  -26.8411   -9.7896 C   0  0  0  0  0  0  0  0  0  0  0  0
   20.5095  -26.7750   -8.8947 O   0  0  0  0  0  0  0  0  0  0  0  0
   17.2848  -24.2208   -8.6877 C   0  0  0  0  0  0  0  0  0  0  0  0
   18.2541  -25.3400   -8.3688 C   0  0  2  0  0  0  0  0  0  0  0  0
   18.4244  -26.1185   -9.5834 N   0  0  0  0  0  0  0  0  0  0  0  0
   17.8170  -26.1562   -7.2315 C   0  0  0  0  0  0  0  0  0  0  0  0
   17.0790  -27.1657   -7.4267 O   0  0  0  0  0  0  0  0  0  0  0  0
   19.0246  -28.0116    0.3390 C   0  0  0  0  0  0  0  0  0  0  0  0
   19.5573  -27.0011   -1.0543 S   0  0  0  0  0  0  0  0  0  0  0  0
   18.3277  -27.2526   -2.4129 C   0  0  0  0  0  0  0  0  0  0  0  0
   18.7257  -26.4429   -3.6117 C   0  0  0  0  0  0  0  0  0  0  0  0
   17.8226  -26.6929   -4.7653 C   0  0  2  0  0  0  0  0  0  0  0  0
   18.1883  -25.8608   -5.9147 N   0  0  0  0  0  0  0  0  0  0  0  0
   16.4345  -26.3902   -4.4262 C   0  0  0  0  0  0  0  0  0  0  0  0
   15.6573  -27.3408   -3.7885 O   0  0  0  0  0  0  0  0  0  0  0  0
   15.8969  -25.2981   -4.6852 O   0  0  0  0  0  0  0  0  0  0  0  0
  1  2  1  0
  2  4  1  0
  3  2  2  0
  4  5  1  0
  5  6  1  0
  6  8  1  0
  6  7  1  1
  8  9  2  0
 11 10  1  6
 11 13  1  0
 12  8  1  0
 12 11  1  0
 13 14  2  0
 16 15  1  0
 17 16  1  0
 17 18  1  0
 19 18  1  1
 19 21  1  0
 20 19  1  0
 20 13  1  0
 21 23  2  0
 21 22  1  0
M  END
$$$$
