QAM.pdb
     RDKit          3D

 23 22  0  0  1  0  0  0  0  0999 V2000
   20.6850  -19.3650  -11.0156 N   0  0  0  0  0  0  0  0  0  0  0  0
   20.9781  -20.1635  -12.1966 C   0  0  0  0  0  0  0  0  0  0  0  0
   20.2535  -21.1751  -12.3739 O   0  0  0  0  0  0  0  0  0  0  0  0
   22.0666  -19.7507  -13.0701 C   0  0  0  0  0  0  0  0  0  0  0  0
   23.4095  -19.5853  -12.4334 C   0  0  0  0  0  0  0  0  0  0  0  0
   24.3546  -20.6477  -12.9136 C   0  0  2  0  0  0  0  0  0  0  0  0
   23.6497  -21.7541  -13.4524 N   0  0  0  0  0  0  0  0  0  0  0  0
   25.2338  -21.1267  -11.7856 C   0  0  0  0  0  0  0  0  0  0  0  0
   24.8354  -22.0425  -11.0216 O   0  0  0  0  0  0  0  0  0  0  0  0
   28.7742  -20.8736  -10.8102 C   0  0  0  0  0  0  0  0  0  0  0  0
   27.3209  -21.0889  -10.4423 C   0  0  2  0  0  0  0  0  0  0  0  0
   26.5204  -20.5784  -11.5418 N   0  0  0  0  0  0  0  0  0  0  0  0
   26.9693  -20.4777   -9.1564 C   0  0  0  0  0  0  0  0  0  0  0  0
   26.5074  -19.2998   -9.1236 O   0  0  0  0  0  0  0  0  0  0  0  0
   28.5370  -19.2827   -2.3349 C   0  0  0  0  0  0  0  0  0  0  0  0
   27.8361  -20.1715   -3.7368 S   0  0  0  0  0  0  0  0  0  0  0  0
   29.2364  -20.6024   -4.8656 C   0  0  0  0  0  0  0  0  0  0  0  0
   28.7060  -21.2840   -6.0925 C   0  0  0  0  0  0  0  0  0  0  0  0
   27.5984  -20.5108   -6.7124 C   0  0  2  0  0  0  0  0  0  0  0  0
   27.1258  -21.1542   -7.9412 N   0  0  0  0  0  0  0  0  0  0  0  0
   28.0267  -19.1584   -7.0599 C   0  0  0  0  0  0  0  0  0  0  0  0
   27.4669  -18.0703   -6.4139 O   0  0  0  0  0  0  0  0  0  0  0  0
   28.8881  -18.9225   -7.9265 O   0  0  0  0  0  0  0  0  0  0  0  0
  1  2  1  0
  2  4  1  0
  3  2  2  0
  4  5  1  0
  5  6  1  0
  6  8  1  0
  6  7  1  1
  8  9  2  0
 11 10  1  6
 11 13  1  0
 12  8  1  0
 12 11  1  0
 13 14  2  0
 16 15  1  0
 17 16  1  0
 17 18  1  0
 19 18  1  6
 19 21  1  0
 20 19  1  0
 20 13  1  0
 21 23  2  0
 21 22  1  0
M  END
$$$$
