QAM.pdb
     RDKit          3D

 23 22  0  0  1  0  0  0  0  0999 V2000
   20.1524  -23.0145  -13.4368 N   0  0  0  0  0  0  0  0  0  0  0  0
   20.3283  -22.1301  -14.5792 C   0  0  0  0  0  0  0  0  0  0  0  0
   20.2437  -22.6672  -15.7125 O   0  0  0  0  0  0  0  0  0  0  0  0
   20.5886  -20.7183  -14.3399 C   0  0  0  0  0  0  0  0  0  0  0  0
   20.6888  -20.2891  -12.9111 C   0  0  0  0  0  0  0  0  0  0  0  0
   21.9549  -19.5170  -12.6804 C   0  0  2  0  0  0  0  0  0  0  0  0
   22.6117  -19.2336  -13.9050 N   0  0  0  0  0  0  0  0  0  0  0  0
   22.8930  -20.2886  -11.7863 C   0  0  0  0  0  0  0  0  0  0  0  0
   22.5366  -20.6051  -10.6228 O   0  0  0  0  0  0  0  0  0  0  0  0
   25.7996  -22.4467  -12.1762 C   0  0  0  0  0  0  0  0  0  0  0  0
   25.0261  -21.4682  -11.3170 C   0  0  2  0  0  0  0  0  0  0  0  0
   24.1896  -20.6835  -12.2085 N   0  0  0  0  0  0  0  0  0  0  0  0
   25.9011  -20.6358  -10.4851 C   0  0  0  0  0  0  0  0  0  0  0  0
   26.3330  -19.5331  -10.9314 O   0  0  0  0  0  0  0  0  0  0  0  0
   29.2740  -19.2027   -3.5222 C   0  0  0  0  0  0  0  0  0  0  0  0
   28.0335  -20.1756   -4.3946 S   0  0  0  0  0  0  0  0  0  0  0  0
   28.2893  -19.8905   -6.2040 C   0  0  0  0  0  0  0  0  0  0  0  0
   27.1809  -20.5391   -6.9800 C   0  0  0  0  0  0  0  0  0  0  0  0
   27.3604  -20.3599   -8.4444 C   0  0  2  0  0  0  0  0  0  0  0  0
   26.2860  -21.0161   -9.1943 N   0  0  0  0  0  0  0  0  0  0  0  0
   28.6261  -20.9317   -8.8965 C   0  0  0  0  0  0  0  0  0  0  0  0
   29.7813  -20.1714   -8.8523 O   0  0  0  0  0  0  0  0  0  0  0  0
   28.7274  -22.0934   -9.3309 O   0  0  0  0  0  0  0  0  0  0  0  0
  1  2  1  0
  2  4  1  0
  3  2  2  0
  4  5  1  0
  5  6  1  0
  6  8  1  0
  6  7  1  6
  8  9  2  0
 11 10  1  6
 11 13  1  0
 12  8  1  0
 12 11  1  0
 13 14  2  0
 16 15  1  0
 17 16  1  0
 17 18  1  0
 19 18  1  1
 19 21  1  0
 20 19  1  0
 20 13  1  0
 21 23  2  0
 21 22  1  0
M  END
$$$$
