QAM.pdb
     RDKit          3D

 23 22  0  0  1  0  0  0  0  0999 V2000
   16.3499  -16.5403  -16.2812 N   0  0  0  0  0  0  0  0  0  0  0  0
   17.6839  -16.1417  -15.8573 C   0  0  0  0  0  0  0  0  0  0  0  0
   17.8006  -15.7911  -14.6559 O   0  0  0  0  0  0  0  0  0  0  0  0
   18.7668  -16.1702  -16.8293 C   0  0  0  0  0  0  0  0  0  0  0  0
   19.5509  -14.9078  -16.9946 C   0  0  0  0  0  0  0  0  0  0  0  0
   18.9708  -14.0677  -18.0947 C   0  0  2  0  0  0  0  0  0  0  0  0
   19.2912  -14.6011  -19.3692 N   0  0  0  0  0  0  0  0  0  0  0  0
   19.4851  -12.6523  -18.0106 C   0  0  0  0  0  0  0  0  0  0  0  0
   20.6842  -12.3999  -18.2925 O   0  0  0  0  0  0  0  0  0  0  0  0
   18.0504   -9.2632  -17.4608 C   0  0  0  0  0  0  0  0  0  0  0  0
   19.2148  -10.2268  -17.5568 C   0  0  2  0  0  0  0  0  0  0  0  0
   18.6579  -11.5671  -17.6191 N   0  0  0  0  0  0  0  0  0  0  0  0
   20.1725  -10.0638  -16.4582 C   0  0  0  0  0  0  0  0  0  0  0  0
   19.9987  -10.6900  -15.3722 O   0  0  0  0  0  0  0  0  0  0  0  0
   26.4440  -11.5061  -15.4074 C   0  0  0  0  0  0  0  0  0  0  0  0
   26.3484   -9.7138  -15.5654 S   0  0  0  0  0  0  0  0  0  0  0  0
   24.6904   -9.1973  -14.9288 C   0  0  0  0  0  0  0  0  0  0  0  0
   23.6546   -9.3955  -15.9960 C   0  0  0  0  0  0  0  0  0  0  0  0
   22.2898   -9.0799  -15.4994 C   0  0  2  0  0  0  0  0  0  0  0  0
   21.2915   -9.2294  -16.5616 N   0  0  0  0  0  0  0  0  0  0  0  0
   22.2092   -7.7064  -15.0093 C   0  0  0  0  0  0  0  0  0  0  0  0
   22.2762   -7.4539  -13.6505 O   0  0  0  0  0  0  0  0  0  0  0  0
   22.0800   -6.7249  -15.7634 O   0  0  0  0  0  0  0  0  0  0  0  0
  1  2  1  0
  2  4  1  0
  3  2  2  0
  4  5  1  0
  5  6  1  0
  6  8  1  0
  6  7  1  6
  8  9  2  0
 11 10  1  1
 11 13  1  0
 12  8  1  0
 12 11  1  0
 13 14  2  0
 16 15  1  0
 17 16  1  0
 17 18  1  0
 19 18  1  6
 19 21  1  0
 20 19  1  0
 20 13  1  0
 21 23  2  0
 21 22  1  0
M  END
$$$$
