QAM.pdb
     RDKit          3D

 23 22  0  0  1  0  0  0  0  0999 V2000
   14.8603  -11.1011  -14.8935 N   0  0  0  0  0  0  0  0  0  0  0  0
   15.2898  -12.4916  -14.9055 C   0  0  0  0  0  0  0  0  0  0  0  0
   14.4094  -13.3447  -14.6275 O   0  0  0  0  0  0  0  0  0  0  0  0
   16.6767  -12.7948  -15.2261 C   0  0  0  0  0  0  0  0  0  0  0  0
   17.6022  -11.6284  -15.3631 C   0  0  0  0  0  0  0  0  0  0  0  0
   17.3874  -10.9371  -16.6779 C   0  0  2  0  0  0  0  0  0  0  0  0
   17.8138  -11.7499  -17.7590 N   0  0  0  0  0  0  0  0  0  0  0  0
   18.1377   -9.6294  -16.7199 C   0  0  0  0  0  0  0  0  0  0  0  0
   19.3485   -9.6084  -17.0584 O   0  0  0  0  0  0  0  0  0  0  0  0
   17.3797   -6.0265  -16.1014 C   0  0  0  0  0  0  0  0  0  0  0  0
   18.3263   -7.1816  -16.3532 C   0  0  2  0  0  0  0  0  0  0  0  0
   17.5249   -8.3927  -16.3877 N   0  0  0  0  0  0  0  0  0  0  0  0
   19.4082   -7.2483  -15.3654 C   0  0  0  0  0  0  0  0  0  0  0  0
   19.2354   -7.8808  -14.2829 O   0  0  0  0  0  0  0  0  0  0  0  0
   26.2540   -9.9169  -14.1011 C   0  0  0  0  0  0  0  0  0  0  0  0
   24.8819   -9.5875  -15.2216 S   0  0  0  0  0  0  0  0  0  0  0  0
   23.8979   -8.2040  -14.4878 C   0  0  0  0  0  0  0  0  0  0  0  0
   22.6702   -7.9617  -15.3157 C   0  0  0  0  0  0  0  0  0  0  0  0
   21.8259   -6.8827  -14.7398 C   0  0  2  0  0  0  0  0  0  0  0  0
   20.6470   -6.6307  -15.5727 N   0  0  0  0  0  0  0  0  0  0  0  0
   22.5677   -5.6288  -14.6353 C   0  0  0  0  0  0  0  0  0  0  0  0
   23.3477   -5.3798  -13.5199 O   0  0  0  0  0  0  0  0  0  0  0  0
   22.5371   -4.7487  -15.5146 O   0  0  0  0  0  0  0  0  0  0  0  0
  1  2  1  0
  2  4  1  0
  3  2  2  0
  4  5  1  0
  5  6  1  0
  6  8  1  0
  6  7  1  6
  8  9  2  0
 11 10  1  1
 11 13  1  0
 12  8  1  0
 12 11  1  0
 13 14  2  0
 16 15  1  0
 17 16  1  0
 17 18  1  0
 19 18  1  6
 19 21  1  0
 20 19  1  0
 20 13  1  0
 21 23  2  0
 21 22  1  0
M  END
$$$$
