QAM.pdb
     RDKit          3D

 23 22  0  0  1  0  0  0  0  0999 V2000
   20.5957  -24.1142  -17.5849 N   0  0  0  0  0  0  0  0  0  0  0  0
   21.1097  -22.8423  -17.0990 C   0  0  0  0  0  0  0  0  0  0  0  0
   21.0985  -21.8912  -17.9208 O   0  0  0  0  0  0  0  0  0  0  0  0
   21.5948  -22.7587  -15.7294 C   0  0  0  0  0  0  0  0  0  0  0  0
   22.9784  -23.2667  -15.4775 C   0  0  0  0  0  0  0  0  0  0  0  0
   23.9986  -22.2987  -16.0016 C   0  0  2  0  0  0  0  0  0  0  0  0
   24.6916  -22.8386  -17.1150 N   0  0  0  0  0  0  0  0  0  0  0  0
   24.9955  -21.9430  -14.9271 C   0  0  0  0  0  0  0  0  0  0  0  0
   25.6553  -22.8478  -14.3554 O   0  0  0  0  0  0  0  0  0  0  0  0
   26.5244  -18.8465  -13.5534 C   0  0  0  0  0  0  0  0  0  0  0  0
   26.2063  -20.3257  -13.4849 C   0  0  2  0  0  0  0  0  0  0  0  0
   25.2285  -20.6022  -14.5230 N   0  0  0  0  0  0  0  0  0  0  0  0
   25.7509  -20.7425  -12.1546 C   0  0  0  0  0  0  0  0  0  0  0  0
   24.5155  -20.9055  -11.9337 O   0  0  0  0  0  0  0  0  0  0  0  0
   29.4420  -19.3382   -7.0651 C   0  0  0  0  0  0  0  0  0  0  0  0
   27.7807  -19.0376   -6.4355 S   0  0  0  0  0  0  0  0  0  0  0  0
   26.6208  -20.0695   -7.4408 C   0  0  0  0  0  0  0  0  0  0  0  0
   27.1164  -20.1562   -8.8543 C   0  0  0  0  0  0  0  0  0  0  0  0
   26.2346  -21.0103   -9.6920 C   0  0  2  0  0  0  0  0  0  0  0  0
   26.6412  -20.9721  -11.0993 N   0  0  0  0  0  0  0  0  0  0  0  0
   24.8452  -20.5651   -9.6227 C   0  0  0  0  0  0  0  0  0  0  0  0
   24.4017  -19.5563  -10.4594 O   0  0  0  0  0  0  0  0  0  0  0  0
   24.0163  -21.0535   -8.8334 O   0  0  0  0  0  0  0  0  0  0  0  0
  1  2  1  0
  2  4  1  0
  3  2  2  0
  4  5  1  0
  5  6  1  0
  6  8  1  0
  6  7  1  6
  8  9  2  0
 11 10  1  1
 11 13  1  0
 12  8  1  0
 12 11  1  0
 13 14  2  0
 16 15  1  0
 17 16  1  0
 17 18  1  0
 19 18  1  1
 19 21  1  0
 20 19  1  0
 20 13  1  0
 21 23  2  0
 21 22  1  0
M  END
$$$$
