QAM.pdb
     RDKit          3D

 23 22  0  0  1  0  0  0  0  0999 V2000
   19.9298  -18.0998  -14.2496 N   0  0  0  0  0  0  0  0  0  0  0  0
   20.7118  -19.3201  -14.3816 C   0  0  0  0  0  0  0  0  0  0  0  0
   20.3383  -20.2947  -13.6813 O   0  0  0  0  0  0  0  0  0  0  0  0
   21.8492  -19.3297  -15.2897 C   0  0  0  0  0  0  0  0  0  0  0  0
   22.1467  -18.0496  -16.0030 C   0  0  0  0  0  0  0  0  0  0  0  0
   21.2112  -17.8623  -17.1615 C   0  0  2  0  0  0  0  0  0  0  0  0
   21.4305  -18.8452  -18.1602 N   0  0  0  0  0  0  0  0  0  0  0  0
   21.3869  -16.4940  -17.7711 C   0  0  0  0  0  0  0  0  0  0  0  0
   22.4384  -16.2155  -18.4018 O   0  0  0  0  0  0  0  0  0  0  0  0
   19.3463  -13.3997  -18.1727 C   0  0  0  0  0  0  0  0  0  0  0  0
   20.6520  -14.1658  -18.2197 C   0  0  2  0  0  0  0  0  0  0  0  0
   20.3961  -15.4831  -17.6633 N   0  0  0  0  0  0  0  0  0  0  0  0
   21.7412  -13.4643  -17.5325 C   0  0  0  0  0  0  0  0  0  0  0  0
   22.0493  -13.7855  -16.3477 O   0  0  0  0  0  0  0  0  0  0  0  0
   28.7167  -12.2786  -15.8341 C   0  0  0  0  0  0  0  0  0  0  0  0
   27.3931  -13.1319  -16.7095 S   0  0  0  0  0  0  0  0  0  0  0  0
   25.9657  -11.9607  -16.8167 C   0  0  0  0  0  0  0  0  0  0  0  0
   24.7751  -12.6659  -17.3967 C   0  0  0  0  0  0  0  0  0  0  0  0
   23.6023  -11.7597  -17.5070 C   0  0  2  0  0  0  0  0  0  0  0  0
   22.4681  -12.4356  -18.1426 N   0  0  0  0  0  0  0  0  0  0  0  0
   23.9181  -10.5805  -18.3089 C   0  0  0  0  0  0  0  0  0  0  0  0
   23.7515  -10.6154  -19.6821 O   0  0  0  0  0  0  0  0  0  0  0  0
   24.3396   -9.5189  -17.8151 O   0  0  0  0  0  0  0  0  0  0  0  0
  1  2  1  0
  2  4  1  0
  3  2  2  0
  4  5  1  0
  5  6  1  0
  6  8  1  0
  6  7  1  6
  8  9  2  0
 11 10  1  1
 11 13  1  0
 12  8  1  0
 12 11  1  0
 13 14  2  0
 16 15  1  0
 17 16  1  0
 17 18  1  0
 19 18  1  6
 19 21  1  0
 20 19  1  0
 20 13  1  0
 21 23  2  0
 21 22  1  0
M  END
$$$$
