QAM.pdb
     RDKit          3D

 23 22  0  0  1  0  0  0  0  0999 V2000
   22.0377  -25.9805  -13.9714 N   0  0  0  0  0  0  0  0  0  0  0  0
   22.9336  -26.5034  -14.9922 C   0  0  0  0  0  0  0  0  0  0  0  0
   22.7118  -27.6809  -15.3720 O   0  0  0  0  0  0  0  0  0  0  0  0
   24.0034  -25.6514  -15.4900 C   0  0  0  0  0  0  0  0  0  0  0  0
   24.1039  -24.2849  -14.8914 C   0  0  0  0  0  0  0  0  0  0  0  0
   25.2024  -23.5013  -15.5486 C   0  0  2  0  0  0  0  0  0  0  0  0
   26.1888  -24.3618  -16.0944 N   0  0  0  0  0  0  0  0  0  0  0  0
   25.8558  -22.5690  -14.5594 C   0  0  0  0  0  0  0  0  0  0  0  0
   26.9333  -22.8977  -14.0009 O   0  0  0  0  0  0  0  0  0  0  0  0
   25.4730  -19.0384  -13.5019 C   0  0  0  0  0  0  0  0  0  0  0  0
   25.9899  -20.4449  -13.2819 C   0  0  2  0  0  0  0  0  0  0  0  0
   25.2972  -21.3081  -14.2228 N   0  0  0  0  0  0  0  0  0  0  0  0
   25.8399  -20.8888  -11.8923 C   0  0  0  0  0  0  0  0  0  0  0  0
   24.8894  -21.6626  -11.5769 O   0  0  0  0  0  0  0  0  0  0  0  0
   28.0858  -19.5549   -4.4273 C   0  0  0  0  0  0  0  0  0  0  0  0
   28.2773  -19.0691   -6.1518 S   0  0  0  0  0  0  0  0  0  0  0  0
   27.1546  -20.1474   -7.1506 C   0  0  0  0  0  0  0  0  0  0  0  0
   27.3666  -19.8820   -8.6121 C   0  0  0  0  0  0  0  0  0  0  0  0
   26.4755  -20.7206   -9.4555 C   0  0  2  0  0  0  0  0  0  0  0  0
   26.7196  -20.4856  -10.8811 N   0  0  0  0  0  0  0  0  0  0  0  0
   25.0688  -20.4261   -9.1951 C   0  0  0  0  0  0  0  0  0  0  0  0
   24.3580  -21.1981   -8.2932 O   0  0  0  0  0  0  0  0  0  0  0  0
   24.4571  -19.4968   -9.7526 O   0  0  0  0  0  0  0  0  0  0  0  0
  1  2  1  0
  2  4  1  0
  3  2  2  0
  4  5  1  0
  5  6  1  0
  6  8  1  0
  6  7  1  1
  8  9  2  0
 11 10  1  1
 11 13  1  0
 12  8  1  0
 12 11  1  0
 13 14  2  0
 16 15  1  0
 17 16  1  0
 17 18  1  0
 19 18  1  1
 19 21  1  0
 20 19  1  0
 20 13  1  0
 21 23  2  0
 21 22  1  0
M  END
$$$$
