QAM.pdb
     RDKit          3D

 23 22  0  0  1  0  0  0  0  0999 V2000
   17.7189  -16.4471  -15.6246 N   0  0  0  0  0  0  0  0  0  0  0  0
   16.3844  -15.8807  -15.4973 C   0  0  0  0  0  0  0  0  0  0  0  0
   15.4786  -16.6747  -15.1379 O   0  0  0  0  0  0  0  0  0  0  0  0
   16.1905  -14.4686  -15.7917 C   0  0  0  0  0  0  0  0  0  0  0  0
   17.4046  -13.6977  -16.2010 C   0  0  0  0  0  0  0  0  0  0  0  0
   17.1402  -12.9293  -17.4628 C   0  0  2  0  0  0  0  0  0  0  0  0
   17.3945  -13.7247  -18.6091 N   0  0  0  0  0  0  0  0  0  0  0  0
   18.0005  -11.6918  -17.5221 C   0  0  0  0  0  0  0  0  0  0  0  0
   19.2244  -11.7879  -17.7937 O   0  0  0  0  0  0  0  0  0  0  0  0
   17.5107   -8.0097  -17.1491 C   0  0  0  0  0  0  0  0  0  0  0  0
   18.3702   -9.2467  -17.3064 C   0  0  2  0  0  0  0  0  0  0  0  0
   17.4792  -10.3938  -17.2801 N   0  0  0  0  0  0  0  0  0  0  0  0
   19.4277   -9.3298  -16.2937 C   0  0  0  0  0  0  0  0  0  0  0  0
   19.1999   -9.9061  -15.1902 O   0  0  0  0  0  0  0  0  0  0  0  0
   27.0543  -10.0450  -14.9402 C   0  0  0  0  0  0  0  0  0  0  0  0
   25.7223   -9.9597  -16.1506 S   0  0  0  0  0  0  0  0  0  0  0  0
   24.1952   -9.4394  -15.2461 C   0  0  0  0  0  0  0  0  0  0  0  0
   23.0222   -9.4576  -16.1815 C   0  0  0  0  0  0  0  0  0  0  0  0
   21.7990   -8.9136  -15.5361 C   0  0  2  0  0  0  0  0  0  0  0  0
   20.7021   -8.7889  -16.4996 N   0  0  0  0  0  0  0  0  0  0  0  0
   22.0427   -7.5885  -14.9721 C   0  0  0  0  0  0  0  0  0  0  0  0
   22.0146   -6.4742  -15.7919 O   0  0  0  0  0  0  0  0  0  0  0  0
   22.2807   -7.3995  -13.7653 O   0  0  0  0  0  0  0  0  0  0  0  0
  1  2  1  0
  2  4  1  0
  3  2  2  0
  4  5  1  0
  5  6  1  0
  6  8  1  0
  6  7  1  6
  8  9  2  0
 11 10  1  1
 11 13  1  0
 12  8  1  0
 12 11  1  0
 13 14  2  0
 16 15  1  0
 17 16  1  0
 17 18  1  0
 19 18  1  6
 19 21  1  0
 20 19  1  0
 20 13  1  0
 21 23  2  0
 21 22  1  0
M  END
$$$$
