PGR.pdb
     RDKit          3D

 23 23  0  0  1  0  0  0  0  0999 V2000
   23.1558  -18.5833  -16.5898 N   0  0  0  0  0  0  0  0  0  0  0  0
   21.9974  -17.9835  -15.9811 C   0  0  0  0  0  0  0  0  0  0  0  0
   21.8638  -16.7222  -16.8454 C   0  0  0  0  0  0  0  0  0  0  0  0
   23.2953  -16.2459  -16.9095 C   0  0  0  0  0  0  0  0  0  0  0  0
   24.0799  -17.5440  -16.8737 C   0  0  1  0  0  0  0  0  0  0  0  0
   25.2471  -17.4536  -15.9873 C   0  0  0  0  0  0  0  0  0  0  0  0
   25.0742  -17.0491  -14.7813 O   0  0  0  0  0  0  0  0  0  0  0  0
   26.5863  -17.7744  -16.3280 N   0  0  0  0  0  0  0  0  0  0  0  0
   27.6608  -17.7903  -15.3708 C   0  0  0  0  0  0  0  0  0  0  0  0
   27.5861  -18.8692  -14.3708 C   0  0  0  0  0  0  0  0  0  0  0  0
   28.5517  -19.0077  -13.5784 O   0  0  0  0  0  0  0  0  0  0  0  0
   22.5311  -20.9150   -9.1007 N   0  0  0  0  0  0  0  0  0  0  0  0
   23.5124  -21.3765   -8.1865 C   0  0  0  0  0  0  0  0  0  0  0  0
   23.1777  -22.0107   -7.1171 N   0  0  0  0  0  0  0  0  0  0  0  0
   24.9063  -21.1397   -8.4453 N   0  0  0  0  0  0  0  0  0  0  0  0
   25.2283  -20.1963   -9.4850 C   0  0  0  0  0  0  0  0  0  0  0  0
   25.6555  -20.7839  -10.7509 C   0  0  0  0  0  0  0  0  0  0  0  0
   26.1508  -20.0977  -11.9083 C   0  0  0  0  0  0  0  0  0  0  0  0
   26.5032  -20.8150  -13.1492 C   0  0  2  0  0  0  0  0  0  0  0  0
   26.4980  -19.7497  -14.2586 N   0  0  0  0  0  0  0  0  0  0  0  0
   25.3425  -21.6386  -13.6438 C   0  0  0  0  0  0  0  0  0  0  0  0
   25.3880  -22.9067  -13.4114 O   0  0  0  0  0  0  0  0  0  0  0  0
   24.2662  -21.1906  -14.2995 O   0  0  0  0  0  0  0  0  0  0  0  0
  2  1  1  0
  3  2  1  0
  4  3  1  0
  4  5  1  0
  5  1  1  0
  6  7  2  0
  5  6  1  1
  8  6  1  0
  9 10  1  0
  9  8  1  0
 10 20  1  0
 11 10  2  0
 13 12  1  0
 13 14  2  0
 15 13  1  0
 16 17  1  0
 16 15  1  0
 18 17  1  0
 19 18  1  1
 20 19  1  0
 21 19  1  0
 21 23  1  0
 22 21  2  0
M  END
$$$$
