PGR.pdb
     RDKit          3D

 23 23  0  0  1  0  0  0  0  0999 V2000
   26.4683  -21.2476  -15.4879 N   0  0  0  0  0  0  0  0  0  0  0  0
   26.3201  -22.3737  -16.3723 C   0  0  0  0  0  0  0  0  0  0  0  0
   26.5341  -21.6814  -17.7252 C   0  0  0  0  0  0  0  0  0  0  0  0
   25.6885  -20.4402  -17.5675 C   0  0  0  0  0  0  0  0  0  0  0  0
   25.8093  -20.1413  -16.0850 C   0  0  1  0  0  0  0  0  0  0  0  0
   24.5190  -19.7600  -15.4968 C   0  0  0  0  0  0  0  0  0  0  0  0
   23.7899  -18.9034  -16.1153 O   0  0  0  0  0  0  0  0  0  0  0  0
   23.9727  -20.2497  -14.2827 N   0  0  0  0  0  0  0  0  0  0  0  0
   22.6704  -19.8765  -13.7973 C   0  0  0  0  0  0  0  0  0  0  0  0
   21.6729  -20.9604  -13.7985 C   0  0  0  0  0  0  0  0  0  0  0  0
   21.6711  -21.7599  -14.7683 O   0  0  0  0  0  0  0  0  0  0  0  0
   17.8666  -24.9393   -6.9254 N   0  0  0  0  0  0  0  0  0  0  0  0
   18.1620  -25.9512   -7.8744 C   0  0  0  0  0  0  0  0  0  0  0  0
   18.0102  -27.1969   -7.5859 N   0  0  0  0  0  0  0  0  0  0  0  0
   18.6389  -25.5950   -9.1827 N   0  0  0  0  0  0  0  0  0  0  0  0
   18.7135  -24.1903   -9.4925 C   0  0  0  0  0  0  0  0  0  0  0  0
   19.1526  -23.8722  -10.8476 C   0  0  0  0  0  0  0  0  0  0  0  0
   19.3572  -22.5719  -11.4159 C   0  0  0  0  0  0  0  0  0  0  0  0
   19.8258  -22.3920  -12.8038 C   0  0  2  0  0  0  0  0  0  0  0  0
   20.7258  -21.1450  -12.7784 N   0  0  0  0  0  0  0  0  0  0  0  0
   18.7280  -21.8406  -13.6762 C   0  0  0  0  0  0  0  0  0  0  0  0
   18.4318  -20.5947  -13.5208 O   0  0  0  0  0  0  0  0  0  0  0  0
   18.0275  -22.5096  -14.5985 O   0  0  0  0  0  0  0  0  0  0  0  0
  2  1  1  0
  3  2  1  0
  4  3  1  0
  4  5  1  0
  5  1  1  0
  6  7  2  0
  5  6  1  1
  8  6  1  0
  9 10  1  0
  9  8  1  0
 10 20  1  0
 11 10  2  0
 13 12  1  0
 13 14  2  0
 15 13  1  0
 16 17  1  0
 16 15  1  0
 18 17  1  0
 19 18  1  1
 20 19  1  0
 21 19  1  0
 21 23  1  0
 22 21  2  0
M  END
$$$$
