PGR.pdb
     RDKit          3D

 23 23  0  0  1  0  0  0  0  0999 V2000
   28.0796  -17.7370  -17.6710 N   0  0  0  0  0  0  0  0  0  0  0  0
   29.0852  -17.4429  -18.6580 C   0  0  0  0  0  0  0  0  0  0  0  0
   28.1924  -17.1671  -19.8756 C   0  0  0  0  0  0  0  0  0  0  0  0
   27.2046  -18.3062  -19.7912 C   0  0  0  0  0  0  0  0  0  0  0  0
   27.0818  -18.5301  -18.2957 C   0  0  1  0  0  0  0  0  0  0  0  0
   27.0803  -19.9583  -17.9545 C   0  0  0  0  0  0  0  0  0  0  0  0
   26.0972  -20.6840  -18.3480 O   0  0  0  0  0  0  0  0  0  0  0  0
   28.0772  -20.6455  -17.2153 N   0  0  0  0  0  0  0  0  0  0  0  0
   27.9643  -22.0295  -16.8373 C   0  0  0  0  0  0  0  0  0  0  0  0
   27.2177  -22.2743  -15.5914 C   0  0  0  0  0  0  0  0  0  0  0  0
   27.1055  -23.4613  -15.1939 O   0  0  0  0  0  0  0  0  0  0  0  0
   25.5845  -19.8503   -7.8463 N   0  0  0  0  0  0  0  0  0  0  0  0
   24.6893  -20.9346   -8.0325 C   0  0  0  0  0  0  0  0  0  0  0  0
   23.7143  -21.1383   -7.2165 N   0  0  0  0  0  0  0  0  0  0  0  0
   24.8613  -21.8279   -9.1452 N   0  0  0  0  0  0  0  0  0  0  0  0
   26.0204  -21.6242   -9.9755 C   0  0  0  0  0  0  0  0  0  0  0  0
   25.7940  -20.8325  -11.1806 C   0  0  0  0  0  0  0  0  0  0  0  0
   26.4434  -20.9720  -12.4513 C   0  0  0  0  0  0  0  0  0  0  0  0
   25.7842  -21.6297  -13.5963 C   0  0  2  0  0  0  0  0  0  0  0  0
   26.6248  -21.2552  -14.8287 N   0  0  0  0  0  0  0  0  0  0  0  0
   24.5187  -20.9065  -13.9779 C   0  0  0  0  0  0  0  0  0  0  0  0
   23.4349  -21.2779  -13.3850 O   0  0  0  0  0  0  0  0  0  0  0  0
   24.4016  -19.9159  -14.8690 O   0  0  0  0  0  0  0  0  0  0  0  0
  2  1  1  0
  3  2  1  0
  4  3  1  0
  4  5  1  0
  5  1  1  0
  6  7  2  0
  5  6  1  6
  8  6  1  0
  9 10  1  0
  9  8  1  0
 10 20  1  0
 11 10  2  0
 13 12  1  0
 13 14  2  0
 15 13  1  0
 16 17  1  0
 16 15  1  0
 18 17  1  0
 19 18  1  1
 20 19  1  0
 21 19  1  0
 21 23  1  0
 22 21  2  0
M  END
$$$$
