PGR.pdb
     RDKit          3D

 23 23  0  0  1  0  0  0  0  0999 V2000
   26.7876  -10.2660  -17.2614 N   0  0  0  0  0  0  0  0  0  0  0  0
   27.2276   -9.6539  -16.0351 C   0  0  0  0  0  0  0  0  0  0  0  0
   26.7328  -10.6963  -15.0231 C   0  0  0  0  0  0  0  0  0  0  0  0
   25.3399  -10.9774  -15.5343 C   0  0  0  0  0  0  0  0  0  0  0  0
   25.4947  -10.8057  -17.0337 C   0  0  1  0  0  0  0  0  0  0  0  0
   24.3700  -10.0646  -17.6186 C   0  0  0  0  0  0  0  0  0  0  0  0
   24.0416  -10.3045  -18.8361 O   0  0  0  0  0  0  0  0  0  0  0  0
   23.5819   -9.0824  -16.9653 N   0  0  0  0  0  0  0  0  0  0  0  0
   22.4274   -8.4699  -17.5678 C   0  0  0  0  0  0  0  0  0  0  0  0
   21.7756   -7.4335  -16.7487 C   0  0  0  0  0  0  0  0  0  0  0  0
   20.8090   -6.8060  -17.2503 O   0  0  0  0  0  0  0  0  0  0  0  0
   17.1304   -9.9761  -11.0492 N   0  0  0  0  0  0  0  0  0  0  0  0
   16.6088   -9.6561  -12.3287 C   0  0  0  0  0  0  0  0  0  0  0  0
   15.4829  -10.1380  -12.7263 N   0  0  0  0  0  0  0  0  0  0  0  0
   17.3378   -8.7814  -13.2059 N   0  0  0  0  0  0  0  0  0  0  0  0
   18.6534   -8.3765  -12.7817 C   0  0  0  0  0  0  0  0  0  0  0  0
   19.3844   -7.5395  -13.7279 C   0  0  0  0  0  0  0  0  0  0  0  0
   20.6907   -6.9718  -13.5626 C   0  0  0  0  0  0  0  0  0  0  0  0
   21.3192   -6.1427  -14.6095 C   0  0  2  0  0  0  0  0  0  0  0  0
   22.1776   -7.1093  -15.4430 N   0  0  0  0  0  0  0  0  0  0  0  0
   22.4368   -5.3091  -14.0382 C   0  0  0  0  0  0  0  0  0  0  0  0
   23.6169   -5.5104  -14.5187 O   0  0  0  0  0  0  0  0  0  0  0  0
   22.3324   -4.3786  -13.0832 O   0  0  0  0  0  0  0  0  0  0  0  0
  2  1  1  0
  3  2  1  0
  4  3  1  0
  4  5  1  0
  5  1  1  0
  6  7  2  0
  5  6  1  1
  8  6  1  0
  9 10  1  0
  9  8  1  0
 10 20  1  0
 11 10  2  0
 13 12  1  0
 13 14  2  0
 15 13  1  0
 16 17  1  0
 16 15  1  0
 18 17  1  0
 19 18  1  1
 20 19  1  0
 21 19  1  0
 21 23  1  0
 22 21  2  0
M  END
$$$$
