PGR.pdb
     RDKit          3D

 23 23  0  0  1  0  0  0  0  0999 V2000
   23.2516  -20.6783  -15.1064 N   0  0  0  0  0  0  0  0  0  0  0  0
   24.3053  -20.6782  -16.0871 C   0  0  0  0  0  0  0  0  0  0  0  0
   24.2251  -19.2221  -16.5658 C   0  0  0  0  0  0  0  0  0  0  0  0
   22.7350  -19.0379  -16.7272 C   0  0  0  0  0  0  0  0  0  0  0  0
   22.1695  -19.9282  -15.6367 C   0  0  1  0  0  0  0  0  0  0  0  0
   21.0127  -20.7012  -16.1063 C   0  0  0  0  0  0  0  0  0  0  0  0
   20.0204  -20.0714  -16.6226 O   0  0  0  0  0  0  0  0  0  0  0  0
   20.8671  -22.1112  -16.0507 N   0  0  0  0  0  0  0  0  0  0  0  0
   19.6581  -22.7941  -16.4289 C   0  0  0  0  0  0  0  0  0  0  0  0
   18.6295  -22.8648  -15.3769 C   0  0  0  0  0  0  0  0  0  0  0  0
   17.4409  -23.0758  -15.7266 O   0  0  0  0  0  0  0  0  0  0  0  0
   19.0238  -24.6194   -6.6564 N   0  0  0  0  0  0  0  0  0  0  0  0
   17.6472  -24.7494   -6.9722 C   0  0  0  0  0  0  0  0  0  0  0  0
   16.7945  -25.1241   -6.0831 N   0  0  0  0  0  0  0  0  0  0  0  0
   17.1826  -24.4616   -8.3016 N   0  0  0  0  0  0  0  0  0  0  0  0
   18.1824  -24.1619   -9.2941 C   0  0  0  0  0  0  0  0  0  0  0  0
   17.6679  -23.6930  -10.5769 C   0  0  0  0  0  0  0  0  0  0  0  0
   18.4223  -23.3490  -11.7467 C   0  0  0  0  0  0  0  0  0  0  0  0
   17.7706  -22.8845  -12.9867 C   0  0  2  0  0  0  0  0  0  0  0  0
   18.9058  -22.7066  -14.0093 N   0  0  0  0  0  0  0  0  0  0  0  0
   17.3628  -21.4385  -12.8724 C   0  0  0  0  0  0  0  0  0  0  0  0
   18.2636  -20.5566  -13.1462 O   0  0  0  0  0  0  0  0  0  0  0  0
   16.1606  -20.9726  -12.5169 O   0  0  0  0  0  0  0  0  0  0  0  0
  2  1  1  0
  3  2  1  0
  4  3  1  0
  4  5  1  0
  5  1  1  0
  6  7  2  0
  5  6  1  6
  8  6  1  0
  9 10  1  0
  9  8  1  0
 10 20  1  0
 11 10  2  0
 13 12  1  0
 13 14  2  0
 15 13  1  0
 16 17  1  0
 16 15  1  0
 18 17  1  0
 19 18  1  1
 20 19  1  0
 21 19  1  0
 21 23  1  0
 22 21  2  0
M  END
$$$$
