PGR.pdb
     RDKit          3D

 23 23  0  0  1  0  0  0  0  0999 V2000
   21.6113  -20.0236  -16.0929 N   0  0  0  0  0  0  0  0  0  0  0  0
   20.3774  -19.2842  -16.1469 C   0  0  0  0  0  0  0  0  0  0  0  0
   20.5889  -18.3243  -14.9682 C   0  0  0  0  0  0  0  0  0  0  0  0
   21.1274  -19.2577  -13.9103 C   0  0  0  0  0  0  0  0  0  0  0  0
   21.9043  -20.2734  -14.7267 C   0  0  1  0  0  0  0  0  0  0  0  0
   21.6763  -21.6449  -14.2543 C   0  0  0  0  0  0  0  0  0  0  0  0
   21.7977  -21.8921  -13.0005 O   0  0  0  0  0  0  0  0  0  0  0  0
   21.3255  -22.7612  -15.0563 N   0  0  0  0  0  0  0  0  0  0  0  0
   21.1161  -24.0809  -14.5219 C   0  0  0  0  0  0  0  0  0  0  0  0
   19.8954  -24.2367  -13.7124 C   0  0  0  0  0  0  0  0  0  0  0  0
   18.9195  -24.8396  -14.2261 O   0  0  0  0  0  0  0  0  0  0  0  0
   18.6522  -25.0458   -5.1230 N   0  0  0  0  0  0  0  0  0  0  0  0
   18.1309  -26.1568   -5.8340 C   0  0  0  0  0  0  0  0  0  0  0  0
   17.8769  -27.2683   -5.2356 N   0  0  0  0  0  0  0  0  0  0  0  0
   17.8773  -26.0546   -7.2451 N   0  0  0  0  0  0  0  0  0  0  0  0
   18.0244  -24.7532   -7.8443 C   0  0  0  0  0  0  0  0  0  0  0  0
   17.8447  -24.7084   -9.2921 C   0  0  0  0  0  0  0  0  0  0  0  0
   18.8231  -24.3658  -10.2827 C   0  0  0  0  0  0  0  0  0  0  0  0
   18.4407  -23.9594  -11.6490 C   0  0  2  0  0  0  0  0  0  0  0  0
   19.7643  -23.7466  -12.4031 N   0  0  0  0  0  0  0  0  0  0  0  0
   17.9552  -22.5332  -11.6711 C   0  0  0  0  0  0  0  0  0  0  0  0
   18.8531  -21.6147  -11.7903 O   0  0  0  0  0  0  0  0  0  0  0  0
   16.6866  -22.1190  -11.5810 O   0  0  0  0  0  0  0  0  0  0  0  0
  2  1  1  0
  3  2  1  0
  4  3  1  0
  4  5  1  0
  5  1  1  0
  6  7  2  0
  5  6  1  1
  8  6  1  0
  9 10  1  0
  9  8  1  0
 10 20  1  0
 11 10  2  0
 13 12  1  0
 13 14  2  0
 15 13  1  0
 16 17  1  0
 16 15  1  0
 18 17  1  0
 19 18  1  1
 20 19  1  0
 21 19  1  0
 21 23  1  0
 22 21  2  0
M  END
$$$$
