PGR.pdb
     RDKit          3D

 23 23  0  0  1  0  0  0  0  0999 V2000
   26.5265  -21.5832  -14.0144 N   0  0  0  0  0  0  0  0  0  0  0  0
   26.6031  -20.6007  -15.0637 C   0  0  0  0  0  0  0  0  0  0  0  0
   27.9431  -19.9392  -14.7136 C   0  0  0  0  0  0  0  0  0  0  0  0
   27.8156  -19.7695  -13.2185 C   0  0  0  0  0  0  0  0  0  0  0  0
   26.9807  -20.9709  -12.8171 C   0  0  1  0  0  0  0  0  0  0  0  0
   25.9463  -20.6156  -11.8372 C   0  0  0  0  0  0  0  0  0  0  0  0
   26.3040  -20.0455  -10.7441 O   0  0  0  0  0  0  0  0  0  0  0  0
   24.5519  -20.8400  -11.9703 N   0  0  0  0  0  0  0  0  0  0  0  0
   23.5835  -20.3716  -11.0143 C   0  0  0  0  0  0  0  0  0  0  0  0
   22.1795  -20.6395  -11.3701 C   0  0  0  0  0  0  0  0  0  0  0  0
   21.2823  -20.1791  -10.6201 O   0  0  0  0  0  0  0  0  0  0  0  0
   23.5703  -18.3278  -15.3416 N   0  0  0  0  0  0  0  0  0  0  0  0
   22.9702  -18.2783  -16.6258 C   0  0  0  0  0  0  0  0  0  0  0  0
   23.0842  -17.2353  -17.3723 N   0  0  0  0  0  0  0  0  0  0  0  0
   22.2202  -19.4028  -17.1145 N   0  0  0  0  0  0  0  0  0  0  0  0
   22.0735  -20.5277  -16.2269 C   0  0  0  0  0  0  0  0  0  0  0  0
   20.8597  -20.5294  -15.4165 C   0  0  0  0  0  0  0  0  0  0  0  0
   20.4397  -21.5269  -14.4760 C   0  0  0  0  0  0  0  0  0  0  0  0
   20.3553  -21.2485  -13.0291 C   0  0  2  0  0  0  0  0  0  0  0  0
   21.7925  -21.3818  -12.4974 N   0  0  0  0  0  0  0  0  0  0  0  0
   19.7496  -22.4138  -12.2904 C   0  0  0  0  0  0  0  0  0  0  0  0
   20.5468  -23.3745  -11.9654 O   0  0  0  0  0  0  0  0  0  0  0  0
   18.4682  -22.5558  -11.9343 O   0  0  0  0  0  0  0  0  0  0  0  0
  2  1  1  0
  3  2  1  0
  4  3  1  0
  4  5  1  0
  5  1  1  0
  6  7  2  0
  5  6  1  1
  8  6  1  0
  9 10  1  0
  9  8  1  0
 10 20  1  0
 11 10  2  0
 13 12  1  0
 13 14  2  0
 15 13  1  0
 16 17  1  0
 16 15  1  0
 18 17  1  0
 19 18  1  6
 20 19  1  0
 21 19  1  0
 21 23  1  0
 22 21  2  0
M  END
$$$$
