PGR.pdb
     RDKit          3D

 23 23  0  0  1  0  0  0  0  0999 V2000
   25.4517  -20.2632  -16.2074 N   0  0  0  0  0  0  0  0  0  0  0  0
   26.4053  -19.2186  -15.9400 C   0  0  0  0  0  0  0  0  0  0  0  0
   27.6231  -20.0636  -15.5417 C   0  0  0  0  0  0  0  0  0  0  0  0
   26.9971  -21.0802  -14.6171 C   0  0  0  0  0  0  0  0  0  0  0  0
   25.6109  -21.2581  -15.2076 C   0  0  1  0  0  0  0  0  0  0  0  0
   24.5751  -21.3046  -14.1678 C   0  0  0  0  0  0  0  0  0  0  0  0
   24.7696  -22.0462  -13.1382 O   0  0  0  0  0  0  0  0  0  0  0  0
   23.3451  -20.5979  -14.1764 N   0  0  0  0  0  0  0  0  0  0  0  0
   22.3832  -20.6770  -13.1089 C   0  0  0  0  0  0  0  0  0  0  0  0
   21.2134  -21.5273  -13.3887 C   0  0  0  0  0  0  0  0  0  0  0  0
   21.2230  -22.2176  -14.4389 O   0  0  0  0  0  0  0  0  0  0  0  0
   19.1923  -26.1053   -7.7488 N   0  0  0  0  0  0  0  0  0  0  0  0
   18.3231  -25.0205   -7.4671 C   0  0  0  0  0  0  0  0  0  0  0  0
   17.3951  -25.1260   -6.5808 N   0  0  0  0  0  0  0  0  0  0  0  0
   18.4689  -23.7779   -8.1746 N   0  0  0  0  0  0  0  0  0  0  0  0
   19.3107  -23.7846   -9.3433 C   0  0  0  0  0  0  0  0  0  0  0  0
   18.6087  -23.8969  -10.6180 C   0  0  0  0  0  0  0  0  0  0  0  0
   18.2984  -22.8429  -11.5392 C   0  0  0  0  0  0  0  0  0  0  0  0
   19.0252  -22.6813  -12.8135 C   0  0  2  0  0  0  0  0  0  0  0  0
   20.0912  -21.6046  -12.5483 N   0  0  0  0  0  0  0  0  0  0  0  0
   18.1976  -21.9153  -13.8127 C   0  0  0  0  0  0  0  0  0  0  0  0
   18.2419  -20.6282  -13.7401 O   0  0  0  0  0  0  0  0  0  0  0  0
   17.4205  -22.4322  -14.7708 O   0  0  0  0  0  0  0  0  0  0  0  0
  2  1  1  0
  3  2  1  0
  4  3  1  0
  4  5  1  0
  5  1  1  0
  6  7  2  0
  5  6  1  1
  8  6  1  0
  9 10  1  0
  9  8  1  0
 10 20  1  0
 11 10  2  0
 13 12  1  0
 13 14  2  0
 15 13  1  0
 16 17  1  0
 16 15  1  0
 18 17  1  0
 19 18  1  1
 20 19  1  0
 21 19  1  0
 21 23  1  0
 22 21  2  0
M  END
$$$$
