PGR.pdb
     RDKit          3D

 23 23  0  0  1  0  0  0  0  0999 V2000
   29.1202  -18.7731  -17.9747 N   0  0  0  0  0  0  0  0  0  0  0  0
   28.9114  -19.6381  -19.1062 C   0  0  0  0  0  0  0  0  0  0  0  0
   28.4619  -18.6079  -20.1513 C   0  0  0  0  0  0  0  0  0  0  0  0
   27.4815  -17.7784  -19.3567 C   0  0  0  0  0  0  0  0  0  0  0  0
   28.0640  -17.8250  -17.9567 C   0  0  1  0  0  0  0  0  0  0  0  0
   27.0258  -18.0295  -16.9385 C   0  0  0  0  0  0  0  0  0  0  0  0
   25.9461  -17.3392  -17.0134 O   0  0  0  0  0  0  0  0  0  0  0  0
   27.0869  -18.9344  -15.8478 N   0  0  0  0  0  0  0  0  0  0  0  0
   26.0166  -19.0996  -14.8999 C   0  0  0  0  0  0  0  0  0  0  0  0
   24.9003  -19.9411  -15.3639 C   0  0  0  0  0  0  0  0  0  0  0  0
   25.1673  -20.9188  -16.1071 O   0  0  0  0  0  0  0  0  0  0  0  0
   17.7562  -21.4058  -12.6546 N   0  0  0  0  0  0  0  0  0  0  0  0
   18.4131  -22.5144  -12.0620 C   0  0  0  0  0  0  0  0  0  0  0  0
   17.7526  -23.5525  -11.6826 N   0  0  0  0  0  0  0  0  0  0  0  0
   19.8382  -22.4923  -11.8760 N   0  0  0  0  0  0  0  0  0  0  0  0
   20.5542  -21.3740  -12.4338 C   0  0  0  0  0  0  0  0  0  0  0  0
   20.5909  -21.3205  -13.8919 C   0  0  0  0  0  0  0  0  0  0  0  0
   21.2683  -20.3600  -14.7131 C   0  0  0  0  0  0  0  0  0  0  0  0
   22.4811  -20.7061  -15.4796 C   0  0  2  0  0  0  0  0  0  0  0  0
   23.5583  -19.7076  -15.0229 N   0  0  0  0  0  0  0  0  0  0  0  0
   22.3637  -20.2481  -16.9102 C   0  0  0  0  0  0  0  0  0  0  0  0
   22.6971  -19.0271  -17.1594 O   0  0  0  0  0  0  0  0  0  0  0  0
   21.9498  -20.9778  -17.9519 O   0  0  0  0  0  0  0  0  0  0  0  0
  2  1  1  0
  3  2  1  0
  4  3  1  0
  4  5  1  0
  5  1  1  0
  6  7  2  0
  5  6  1  1
  8  6  1  0
  9 10  1  0
  9  8  1  0
 10 20  1  0
 11 10  2  0
 13 12  1  0
 13 14  2  0
 15 13  1  0
 16 17  1  0
 16 15  1  0
 18 17  1  0
 19 18  1  1
 20 19  1  0
 21 19  1  0
 21 23  1  0
 22 21  2  0
M  END
$$$$
