PWR.pdb
     RDKit          3D

 33 35  0  0  1  0  0  0  0  0999 V2000
    7.3508  -16.2024   21.3248 N   0  0  0  0  0  0  0  0  0  0  0  0
    6.1910  -15.3751   21.0408 C   0  0  0  0  0  0  0  0  0  0  0  0
    6.6433  -13.9542   21.4114 C   0  0  0  0  0  0  0  0  0  0  0  0
    8.0452  -13.9785   20.8417 C   0  0  0  0  0  0  0  0  0  0  0  0
    8.5064  -15.3658   21.2199 C   0  0  1  0  0  0  0  0  0  0  0  0
    9.1609  -15.2476   22.5736 C   0  0  0  0  0  0  0  0  0  0  0  0
   10.0765  -14.4008   22.7428 O   0  0  0  0  0  0  0  0  0  0  0  0
    8.7317  -16.0915   23.6245 N   0  0  0  0  0  0  0  0  0  0  0  0
    9.3914  -16.1644   24.9067 C   0  0  1  0  0  0  0  0  0  0  0  0
    8.4180  -16.3567   26.0064 C   0  0  0  0  0  0  0  0  0  0  0  0
    7.4317  -15.2325   25.9659 C   0  0  0  0  0  0  0  0  0  0  0  0
    6.1112  -15.2686   25.5822 C   0  0  0  0  0  0  0  0  0  0  0  0
    5.5439  -14.0514   25.6815 N   0  0  0  0  0  0  0  0  0  0  0  0
    6.4907  -13.2040   26.1326 C   0  0  0  0  0  0  0  0  0  0  0  0
    6.4833  -11.8603   26.4180 C   0  0  0  0  0  0  0  0  0  0  0  0
    7.6155  -11.2215   26.8768 C   0  0  0  0  0  0  0  0  0  0  0  0
    8.7741  -11.9406   27.0526 C   0  0  0  0  0  0  0  0  0  0  0  0
    8.7973  -13.2837   26.7718 C   0  0  0  0  0  0  0  0  0  0  0  0
    7.6616  -13.9048   26.3158 C   0  0  0  0  0  0  0  0  0  0  0  0
   10.5273  -17.1263   24.9254 C   0  0  0  0  0  0  0  0  0  0  0  0
   10.3315  -18.2809   24.5052 O   0  0  0  0  0  0  0  0  0  0  0  0
   17.4788  -16.1420   24.3236 N   0  0  0  0  0  0  0  0  0  0  0  0
   17.2385  -15.8933   22.9056 C   0  0  0  0  0  0  0  0  0  0  0  0
   18.2212  -15.6238   22.1871 N   0  0  0  0  0  0  0  0  0  0  0  0
   15.9165  -15.9648   22.4100 N   0  0  0  0  0  0  0  0  0  0  0  0
   14.7264  -16.2220   23.1479 C   0  0  0  0  0  0  0  0  0  0  0  0
   14.6377  -17.4748   23.9313 C   0  0  0  0  0  0  0  0  0  0  0  0
   14.1960  -17.2087   25.3648 C   0  0  0  0  0  0  0  0  0  0  0  0
   12.8495  -17.7625   25.6706 C   0  0  2  0  0  0  0  0  0  0  0  0
   11.8055  -16.7631   25.4030 N   0  0  0  0  0  0  0  0  0  0  0  0
   12.6931  -18.3022   27.0370 C   0  0  0  0  0  0  0  0  0  0  0  0
   13.4751  -19.4073   27.4244 O   0  0  0  0  0  0  0  0  0  0  0  0
   11.9153  -17.8600   27.8995 O   0  0  0  0  0  0  0  0  0  0  0  0
  1  2  1  0
  3  2  1  0
  4  5  1  0
  4  3  1  0
  5  1  1  0
  5  6  1  1
  6  7  2  0
  8  6  1  0
  9  8  1  0
  9 10  1  1
 11 10  1  0
 12 11  2  0
 13 14  1  0
 13 12  1  0
 14 19  2  0
 15 16  2  0
 15 14  1  0
 16 17  1  0
 17 18  2  0
 19 18  1  0
 19 11  1  0
 20  9  1  0
 20 21  2  0
 22 23  1  0
 23 25  1  0
 24 23  2  0
 25 26  1  0
 26 27  1  0
 28 27  1  0
 29 30  1  0
 29 28  1  1
 30 20  1  0
 31 29  1  0
 32 31  1  0
 33 31  2  0
M  END
$$$$
