PWR.pdb
     RDKit          3D

 33 35  0  0  1  0  0  0  0  0999 V2000
    7.4341  -15.5863   20.7648 N   0  0  0  0  0  0  0  0  0  0  0  0
    6.2896  -14.7378   20.4812 C   0  0  0  0  0  0  0  0  0  0  0  0
    6.7175  -13.3499   20.9826 C   0  0  0  0  0  0  0  0  0  0  0  0
    8.1485  -13.3334   20.4902 C   0  0  0  0  0  0  0  0  0  0  0  0
    8.5917  -14.7462   20.7869 C   0  0  1  0  0  0  0  0  0  0  0  0
    9.1709  -14.7320   22.1794 C   0  0  0  0  0  0  0  0  0  0  0  0
   10.1392  -13.9699   22.4356 O   0  0  0  0  0  0  0  0  0  0  0  0
    8.6135  -15.5762   23.1681 N   0  0  0  0  0  0  0  0  0  0  0  0
    9.1885  -15.7523   24.4807 C   0  0  1  0  0  0  0  0  0  0  0  0
    8.1530  -16.0881   25.4850 C   0  0  0  0  0  0  0  0  0  0  0  0
    7.1098  -15.0160   25.4640 C   0  0  0  0  0  0  0  0  0  0  0  0
    5.8148  -15.0936   25.0065 C   0  0  0  0  0  0  0  0  0  0  0  0
    5.1770  -13.9169   25.1541 N   0  0  0  0  0  0  0  0  0  0  0  0
    6.0511  -13.0548   25.7116 C   0  0  0  0  0  0  0  0  0  0  0  0
    5.9551  -11.7360   26.0839 C   0  0  0  0  0  0  0  0  0  0  0  0
    7.0252  -11.0729   26.6455 C   0  0  0  0  0  0  0  0  0  0  0  0
    8.2110  -11.7417   26.8374 C   0  0  0  0  0  0  0  0  0  0  0  0
    8.3225  -13.0594   26.4706 C   0  0  0  0  0  0  0  0  0  0  0  0
    7.2479  -13.7053   25.9127 C   0  0  0  0  0  0  0  0  0  0  0  0
   10.3610  -16.6695   24.4865 C   0  0  0  0  0  0  0  0  0  0  0  0
   10.8582  -16.9867   25.5820 O   0  0  0  0  0  0  0  0  0  0  0  0
   15.1455  -22.7378   23.5299 N   0  0  0  0  0  0  0  0  0  0  0  0
   14.5533  -22.8285   22.1989 C   0  0  0  0  0  0  0  0  0  0  0  0
   15.1622  -23.4896   21.3346 N   0  0  0  0  0  0  0  0  0  0  0  0
   13.3287  -22.1693   21.9455 N   0  0  0  0  0  0  0  0  0  0  0  0
   12.8829  -20.9300   22.4861 C   0  0  0  0  0  0  0  0  0  0  0  0
   13.4190  -19.6751   21.9123 C   0  0  0  0  0  0  0  0  0  0  0  0
   12.3781  -18.5630   21.9275 C   0  0  0  0  0  0  0  0  0  0  0  0
   12.1108  -18.0353   23.2925 C   0  0  2  0  0  0  0  0  0  0  0  0
   10.9148  -17.1809   23.2925 N   0  0  0  0  0  0  0  0  0  0  0  0
   13.2424  -17.3193   23.9167 C   0  0  0  0  0  0  0  0  0  0  0  0
   13.4861  -15.9821   23.5487 O   0  0  0  0  0  0  0  0  0  0  0  0
   14.0199  -17.7997   24.7588 O   0  0  0  0  0  0  0  0  0  0  0  0
  1  2  1  0
  3  2  1  0
  4  5  1  0
  4  3  1  0
  5  1  1  0
  5  6  1  1
  6  7  2  0
  8  6  1  0
  9  8  1  0
  9 10  1  1
 11 10  1  0
 12 11  2  0
 13 14  1  0
 13 12  1  0
 14 19  2  0
 15 16  2  0
 15 14  1  0
 16 17  1  0
 17 18  2  0
 19 18  1  0
 19 11  1  0
 20  9  1  0
 20 21  2  0
 22 23  1  0
 23 25  1  0
 24 23  2  0
 25 26  1  0
 26 27  1  0
 28 27  1  0
 29 30  1  0
 29 28  1  6
 30 20  1  0
 31 29  1  0
 32 31  1  0
 33 31  2  0
M  END
$$$$
