PWR.pdb
     RDKit          3D

 33 35  0  0  1  0  0  0  0  0999 V2000
    7.0699  -15.9853   20.7777 N   0  0  0  0  0  0  0  0  0  0  0  0
    6.0514  -15.0296   20.3784 C   0  0  0  0  0  0  0  0  0  0  0  0
    6.6612  -13.6632   20.7274 C   0  0  0  0  0  0  0  0  0  0  0  0
    8.0829  -13.8948   20.2633 C   0  0  0  0  0  0  0  0  0  0  0  0
    8.3303  -15.3107   20.7264 C   0  0  1  0  0  0  0  0  0  0  0  0
    8.9014  -15.2145   22.1190 C   0  0  0  0  0  0  0  0  0  0  0  0
    9.8976  -14.4737   22.3258 O   0  0  0  0  0  0  0  0  0  0  0  0
    8.3051  -15.9594   23.1632 N   0  0  0  0  0  0  0  0  0  0  0  0
    8.9432  -16.1968   24.4364 C   0  0  1  0  0  0  0  0  0  0  0  0
    7.9606  -16.1881   25.5446 C   0  0  0  0  0  0  0  0  0  0  0  0
    7.1652  -14.9238   25.4603 C   0  0  0  0  0  0  0  0  0  0  0  0
    5.8853  -14.7502   24.9869 C   0  0  0  0  0  0  0  0  0  0  0  0
    5.5073  -13.4607   25.0725 N   0  0  0  0  0  0  0  0  0  0  0  0
    6.5393  -12.7754   25.6046 C   0  0  0  0  0  0  0  0  0  0  0  0
    6.7195  -11.4497   25.9168 C   0  0  0  0  0  0  0  0  0  0  0  0
    7.9015  -10.9995   26.4648 C   0  0  0  0  0  0  0  0  0  0  0  0
    8.9199  -11.8917   26.7042 C   0  0  0  0  0  0  0  0  0  0  0  0
    8.7550  -13.2192   26.3978 C   0  0  0  0  0  0  0  0  0  0  0  0
    7.5722  -13.6515   25.8526 C   0  0  0  0  0  0  0  0  0  0  0  0
    9.8394  -17.3855   24.4279 C   0  0  0  0  0  0  0  0  0  0  0  0
    9.3213  -18.5165   24.4143 O   0  0  0  0  0  0  0  0  0  0  0  0
   16.1406  -18.1486   20.4454 N   0  0  0  0  0  0  0  0  0  0  0  0
   16.5736  -19.4505   20.9434 C   0  0  0  0  0  0  0  0  0  0  0  0
   17.7580  -19.7855   20.7439 N   0  0  0  0  0  0  0  0  0  0  0  0
   15.6433  -20.2706   21.6218 N   0  0  0  0  0  0  0  0  0  0  0  0
   14.3792  -19.8905   22.1550 C   0  0  0  0  0  0  0  0  0  0  0  0
   14.3363  -19.2723   23.4993 C   0  0  0  0  0  0  0  0  0  0  0  0
   13.3437  -18.1180   23.5534 C   0  0  0  0  0  0  0  0  0  0  0  0
   12.1320  -18.4303   24.3581 C   0  0  2  0  0  0  0  0  0  0  0  0
   11.2458  -17.2602   24.4353 N   0  0  0  0  0  0  0  0  0  0  0  0
   12.4014  -18.9497   25.7147 C   0  0  0  0  0  0  0  0  0  0  0  0
   12.0005  -18.1847   26.8269 O   0  0  0  0  0  0  0  0  0  0  0  0
   12.9635  -20.0276   25.9728 O   0  0  0  0  0  0  0  0  0  0  0  0
  1  2  1  0
  3  2  1  0
  4  5  1  0
  4  3  1  0
  5  1  1  0
  5  6  1  1
  6  7  2  0
  8  6  1  0
  9  8  1  0
  9 10  1  1
 11 10  1  0
 12 11  2  0
 13 14  1  0
 13 12  1  0
 14 19  2  0
 15 16  2  0
 15 14  1  0
 16 17  1  0
 17 18  2  0
 19 18  1  0
 19 11  1  0
 20  9  1  0
 20 21  2  0
 22 23  1  0
 23 25  1  0
 24 23  2  0
 25 26  1  0
 26 27  1  0
 28 27  1  0
 29 30  1  0
 29 28  1  1
 30 20  1  0
 31 29  1  0
 32 31  1  0
 33 31  2  0
M  END
$$$$
