PWR.pdb
     RDKit          3D

 33 35  0  0  1  0  0  0  0  0999 V2000
    7.7493  -15.6212   20.1951 N   0  0  0  0  0  0  0  0  0  0  0  0
    6.8942  -14.5492   19.7158 C   0  0  0  0  0  0  0  0  0  0  0  0
    7.4650  -13.2874   20.3812 C   0  0  0  0  0  0  0  0  0  0  0  0
    8.9442  -13.5638   20.2203 C   0  0  0  0  0  0  0  0  0  0  0  0
    9.0152  -15.0415   20.5234 C   0  0  1  0  0  0  0  0  0  0  0  0
    9.2504  -15.1655   22.0080 C   0  0  0  0  0  0  0  0  0  0  0  0
   10.2302  -14.5706   22.5277 O   0  0  0  0  0  0  0  0  0  0  0  0
    8.3646  -15.9484   22.7848 N   0  0  0  0  0  0  0  0  0  0  0  0
    8.5117  -16.1405   24.2082 C   0  0  1  0  0  0  0  0  0  0  0  0
    7.2313  -15.9203   24.9195 C   0  0  0  0  0  0  0  0  0  0  0  0
    6.9321  -14.4545   24.9100 C   0  0  0  0  0  0  0  0  0  0  0  0
    6.2400  -13.7304   23.9671 C   0  0  0  0  0  0  0  0  0  0  0  0
    6.1753  -12.4290   24.3065 N   0  0  0  0  0  0  0  0  0  0  0  0
    6.8265  -12.2880   25.4787 C   0  0  0  0  0  0  0  0  0  0  0  0
    7.0765  -11.2041   26.2848 C   0  0  0  0  0  0  0  0  0  0  0  0
    7.7849  -11.3364   27.4600 C   0  0  0  0  0  0  0  0  0  0  0  0
    8.2504  -12.5749   27.8339 C   0  0  0  0  0  0  0  0  0  0  0  0
    8.0087  -13.6673   27.0392 C   0  0  0  0  0  0  0  0  0  0  0  0
    7.3020  -13.5188   25.8723 C   0  0  0  0  0  0  0  0  0  0  0  0
    9.1893  -17.4189   24.5581 C   0  0  0  0  0  0  0  0  0  0  0  0
    8.6085  -18.4873   24.2954 O   0  0  0  0  0  0  0  0  0  0  0  0
   12.3888  -21.0459   20.6199 N   0  0  0  0  0  0  0  0  0  0  0  0
   13.7499  -20.8442   21.1069 C   0  0  0  0  0  0  0  0  0  0  0  0
   14.6123  -20.4719   20.2870 N   0  0  0  0  0  0  0  0  0  0  0  0
   14.0330  -21.0786   22.4719 N   0  0  0  0  0  0  0  0  0  0  0  0
   13.1377  -20.9728   23.5738 C   0  0  0  0  0  0  0  0  0  0  0  0
   12.1295  -19.8890   23.5635 C   0  0  0  0  0  0  0  0  0  0  0  0
   12.3439  -18.9138   24.7140 C   0  0  0  0  0  0  0  0  0  0  0  0
   11.1218  -18.7074   25.5369 C   0  0  2  0  0  0  0  0  0  0  0  0
   10.4598  -17.4464   25.1737 N   0  0  0  0  0  0  0  0  0  0  0  0
   11.3372  -18.7619   26.9975 C   0  0  0  0  0  0  0  0  0  0  0  0
   11.6351  -17.5697   27.6850 O   0  0  0  0  0  0  0  0  0  0  0  0
   11.2782  -19.7890   27.6946 O   0  0  0  0  0  0  0  0  0  0  0  0
  1  2  1  0
  3  2  1  0
  4  5  1  0
  4  3  1  0
  5  1  1  0
  5  6  1  1
  6  7  2  0
  8  6  1  0
  9  8  1  0
  9 10  1  1
 11 10  1  0
 12 11  2  0
 13 14  1  0
 13 12  1  0
 14 19  2  0
 15 16  2  0
 15 14  1  0
 16 17  1  0
 17 18  2  0
 19 18  1  0
 19 11  1  0
 20  9  1  0
 20 21  2  0
 22 23  1  0
 23 25  1  0
 24 23  2  0
 25 26  1  0
 26 27  1  0
 28 27  1  0
 29 30  1  0
 29 28  1  6
 30 20  1  0
 31 29  1  0
 32 31  1  0
 33 31  2  0
M  END
$$$$
