PWR.pdb
     RDKit          3D

 33 35  0  0  1  0  0  0  0  0999 V2000
    7.7522  -15.0237   18.8205 N   0  0  0  0  0  0  0  0  0  0  0  0
    6.9160  -13.9462   18.3208 C   0  0  0  0  0  0  0  0  0  0  0  0
    7.4636  -12.6914   19.0182 C   0  0  0  0  0  0  0  0  0  0  0  0
    8.9474  -12.9682   18.9082 C   0  0  0  0  0  0  0  0  0  0  0  0
    9.0060  -14.4488   19.1997 C   0  0  1  0  0  0  0  0  0  0  0  0
    9.1875  -14.5871   20.6905 C   0  0  0  0  0  0  0  0  0  0  0  0
   10.2636  -14.2027   21.2179 O   0  0  0  0  0  0  0  0  0  0  0  0
    8.1439  -15.1463   21.4645 N   0  0  0  0  0  0  0  0  0  0  0  0
    8.2052  -15.2869   22.9002 C   0  0  1  0  0  0  0  0  0  0  0  0
    6.8667  -15.1378   23.5165 C   0  0  0  0  0  0  0  0  0  0  0  0
    7.0474  -14.8403   24.9715 C   0  0  0  0  0  0  0  0  0  0  0  0
    7.2341  -15.7261   26.0073 C   0  0  0  0  0  0  0  0  0  0  0  0
    7.3591  -15.0795   27.1818 N   0  0  0  0  0  0  0  0  0  0  0  0
    7.2553  -13.7599   26.9254 C   0  0  0  0  0  0  0  0  0  0  0  0
    7.3050  -12.6451   27.7266 C   0  0  0  0  0  0  0  0  0  0  0  0
    7.1668  -11.3793   27.1984 C   0  0  0  0  0  0  0  0  0  0  0  0
    6.9757  -11.2277   25.8453 C   0  0  0  0  0  0  0  0  0  0  0  0
    6.9238  -12.3317   25.0318 C   0  0  0  0  0  0  0  0  0  0  0  0
    7.0631  -13.5850   25.5733 C   0  0  0  0  0  0  0  0  0  0  0  0
    8.9433  -16.5036   23.3370 C   0  0  0  0  0  0  0  0  0  0  0  0
    8.5602  -17.6102   22.9170 O   0  0  0  0  0  0  0  0  0  0  0  0
   13.6862  -20.6950   19.4755 N   0  0  0  0  0  0  0  0  0  0  0  0
   14.2619  -20.4373   20.7919 C   0  0  0  0  0  0  0  0  0  0  0  0
   15.4613  -20.1011   20.8471 N   0  0  0  0  0  0  0  0  0  0  0  0
   13.4467  -20.5799   21.9380 N   0  0  0  0  0  0  0  0  0  0  0  0
   13.2324  -19.6270   22.9739 C   0  0  0  0  0  0  0  0  0  0  0  0
   12.2705  -18.5276   22.7347 C   0  0  0  0  0  0  0  0  0  0  0  0
   12.1700  -17.5996   23.9386 C   0  0  0  0  0  0  0  0  0  0  0  0
   10.8282  -17.6232   24.5806 C   0  0  2  0  0  0  0  0  0  0  0  0
   10.0539  -16.4313   24.2060 N   0  0  0  0  0  0  0  0  0  0  0  0
   10.8428  -17.7742   26.0502 C   0  0  0  0  0  0  0  0  0  0  0  0
   10.9111  -19.0690   26.5992 O   0  0  0  0  0  0  0  0  0  0  0  0
   10.7995  -16.8402   26.8688 O   0  0  0  0  0  0  0  0  0  0  0  0
  1  2  1  0
  3  2  1  0
  4  5  1  0
  4  3  1  0
  5  1  1  0
  5  6  1  1
  6  7  2  0
  8  6  1  0
  9  8  1  0
  9 10  1  6
 11 10  1  0
 12 11  2  0
 13 14  1  0
 13 12  1  0
 14 19  2  0
 15 16  2  0
 15 14  1  0
 16 17  1  0
 17 18  2  0
 19 18  1  0
 19 11  1  0
 20  9  1  0
 20 21  2  0
 22 23  1  0
 23 25  1  0
 24 23  2  0
 25 26  1  0
 26 27  1  0
 28 27  1  0
 29 30  1  0
 29 28  1  1
 30 20  1  0
 31 29  1  0
 32 31  1  0
 33 31  2  0
M  END
$$$$
