PWR.pdb
     RDKit          3D

 33 35  0  0  1  0  0  0  0  0999 V2000
    6.8772  -15.4432   20.5843 N   0  0  0  0  0  0  0  0  0  0  0  0
    5.9216  -14.3734   20.3553 C   0  0  0  0  0  0  0  0  0  0  0  0
    6.6753  -13.1010   20.7721 C   0  0  0  0  0  0  0  0  0  0  0  0
    8.0324  -13.4039   20.1747 C   0  0  0  0  0  0  0  0  0  0  0  0
    8.1856  -14.8728   20.4896 C   0  0  1  0  0  0  0  0  0  0  0  0
    8.8644  -14.9563   21.8338 C   0  0  0  0  0  0  0  0  0  0  0  0
    9.9232  -14.3049   22.0302 O   0  0  0  0  0  0  0  0  0  0  0  0
    8.2964  -15.7655   22.8455 N   0  0  0  0  0  0  0  0  0  0  0  0
    8.9798  -16.1038   24.0715 C   0  0  1  0  0  0  0  0  0  0  0  0
    8.0329  -16.2235   25.2041 C   0  0  0  0  0  0  0  0  0  0  0  0
    7.2081  -14.9768   25.2636 C   0  0  0  0  0  0  0  0  0  0  0  0
    5.9246  -14.7797   24.8097 C   0  0  0  0  0  0  0  0  0  0  0  0
    5.5164  -13.5177   25.0421 N   0  0  0  0  0  0  0  0  0  0  0  0
    6.5321  -12.8744   25.6525 C   0  0  0  0  0  0  0  0  0  0  0  0
    6.6812  -11.5897   26.1156 C   0  0  0  0  0  0  0  0  0  0  0  0
    7.8523  -11.1781   26.7152 C   0  0  0  0  0  0  0  0  0  0  0  0
    8.8912  -12.0681   26.8531 C   0  0  0  0  0  0  0  0  0  0  0  0
    8.7575  -13.3549   26.3955 C   0  0  0  0  0  0  0  0  0  0  0  0
    7.5851  -13.7490   25.8009 C   0  0  0  0  0  0  0  0  0  0  0  0
    9.9023  -17.2630   23.9253 C   0  0  0  0  0  0  0  0  0  0  0  0
    9.4101  -18.4006   23.8187 O   0  0  0  0  0  0  0  0  0  0  0  0
   17.2454  -19.1802   21.8008 N   0  0  0  0  0  0  0  0  0  0  0  0
   16.5300  -19.4649   20.5607 C   0  0  0  0  0  0  0  0  0  0  0  0
   17.0599  -19.1115   19.4888 N   0  0  0  0  0  0  0  0  0  0  0  0
   15.2790  -20.1200   20.6242 N   0  0  0  0  0  0  0  0  0  0  0  0
   14.1321  -19.7287   21.3715 C   0  0  0  0  0  0  0  0  0  0  0  0
   14.3336  -19.0483   22.6706 C   0  0  0  0  0  0  0  0  0  0  0  0
   13.3510  -17.8996   22.8594 C   0  0  0  0  0  0  0  0  0  0  0  0
   12.2170  -18.2462   23.7580 C   0  0  2  0  0  0  0  0  0  0  0  0
   11.3051  -17.1029   23.9055 N   0  0  0  0  0  0  0  0  0  0  0  0
   12.6089  -18.7541   25.0888 C   0  0  0  0  0  0  0  0  0  0  0  0
   12.2319  -18.0241   26.2324 O   0  0  0  0  0  0  0  0  0  0  0  0
   13.2573  -19.7932   25.2989 O   0  0  0  0  0  0  0  0  0  0  0  0
  1  2  1  0
  3  2  1  0
  4  5  1  0
  4  3  1  0
  5  1  1  0
  5  6  1  1
  6  7  2  0
  8  6  1  0
  9  8  1  0
  9 10  1  1
 11 10  1  0
 12 11  2  0
 13 14  1  0
 13 12  1  0
 14 19  2  0
 15 16  2  0
 15 14  1  0
 16 17  1  0
 17 18  2  0
 19 18  1  0
 19 11  1  0
 20  9  1  0
 20 21  2  0
 22 23  1  0
 23 25  1  0
 24 23  2  0
 25 26  1  0
 26 27  1  0
 28 27  1  0
 29 30  1  0
 29 28  1  1
 30 20  1  0
 31 29  1  0
 32 31  1  0
 33 31  2  0
M  END
$$$$
