PWR.pdb
     RDKit          3D

 33 35  0  0  1  0  0  0  0  0999 V2000
    7.0657  -16.4177   21.3644 N   0  0  0  0  0  0  0  0  0  0  0  0
    5.9560  -15.5191   21.0980 C   0  0  0  0  0  0  0  0  0  0  0  0
    6.5818  -14.1177   21.1706 C   0  0  0  0  0  0  0  0  0  0  0  0
    7.8802  -14.3824   20.4395 C   0  0  0  0  0  0  0  0  0  0  0  0
    8.2647  -15.7397   20.9783 C   0  0  1  0  0  0  0  0  0  0  0  0
    9.1135  -15.4929   22.2004 C   0  0  0  0  0  0  0  0  0  0  0  0
   10.0889  -14.7014   22.1227 O   0  0  0  0  0  0  0  0  0  0  0  0
    8.7952  -16.1569   23.4082 N   0  0  0  0  0  0  0  0  0  0  0  0
    9.6229  -16.0998   24.5899 C   0  0  1  0  0  0  0  0  0  0  0  0
    8.8153  -16.2377   25.8238 C   0  0  0  0  0  0  0  0  0  0  0  0
    7.6658  -15.2834   25.7448 C   0  0  0  0  0  0  0  0  0  0  0  0
    6.3413  -15.5608   25.4977 C   0  0  0  0  0  0  0  0  0  0  0  0
    5.6007  -14.4363   25.5052 N   0  0  0  0  0  0  0  0  0  0  0  0
    6.4360  -13.4084   25.7581 C   0  0  0  0  0  0  0  0  0  0  0  0
    6.2415  -12.0540   25.8802 C   0  0  0  0  0  0  0  0  0  0  0  0
    7.2925  -11.2030   26.1476 C   0  0  0  0  0  0  0  0  0  0  0  0
    8.5591  -11.7171   26.2952 C   0  0  0  0  0  0  0  0  0  0  0  0
    8.7693  -13.0679   26.1761 C   0  0  0  0  0  0  0  0  0  0  0  0
    7.7125  -13.9018   25.9096 C   0  0  0  0  0  0  0  0  0  0  0  0
   10.7962  -17.0137   24.5260 C   0  0  0  0  0  0  0  0  0  0  0  0
   10.6218  -18.2186   24.7824 O   0  0  0  0  0  0  0  0  0  0  0  0
   18.8844  -15.6843   25.0279 N   0  0  0  0  0  0  0  0  0  0  0  0
   18.8903  -16.0307   23.6100 C   0  0  0  0  0  0  0  0  0  0  0  0
   19.6384  -15.3792   22.8547 N   0  0  0  0  0  0  0  0  0  0  0  0
   18.0558  -17.0772   23.1551 N   0  0  0  0  0  0  0  0  0  0  0  0
   16.7309  -16.9705   22.6450 C   0  0  0  0  0  0  0  0  0  0  0  0
   15.6357  -17.6466   23.3761 C   0  0  0  0  0  0  0  0  0  0  0  0
   14.3554  -16.8214   23.3549 C   0  0  0  0  0  0  0  0  0  0  0  0
   13.2441  -17.4526   24.1165 C   0  0  2  0  0  0  0  0  0  0  0  0
   12.0859  -16.5503   24.1858 N   0  0  0  0  0  0  0  0  0  0  0  0
   13.6029  -17.9183   25.4718 C   0  0  0  0  0  0  0  0  0  0  0  0
   14.2848  -19.1425   25.6110 O   0  0  0  0  0  0  0  0  0  0  0  0
   13.3526  -17.3144   26.5288 O   0  0  0  0  0  0  0  0  0  0  0  0
  1  2  1  0
  3  2  1  0
  4  5  1  0
  4  3  1  0
  5  1  1  0
  5  6  1  1
  6  7  2  0
  8  6  1  0
  9  8  1  0
  9 10  1  1
 11 10  1  0
 12 11  2  0
 13 14  1  0
 13 12  1  0
 14 19  2  0
 15 16  2  0
 15 14  1  0
 16 17  1  0
 17 18  2  0
 19 18  1  0
 19 11  1  0
 20  9  1  0
 20 21  2  0
 22 23  1  0
 23 25  1  0
 24 23  2  0
 25 26  1  0
 26 27  1  0
 28 27  1  0
 29 30  1  0
 29 28  1  1
 30 20  1  0
 31 29  1  0
 32 31  1  0
 33 31  2  0
M  END
$$$$
