PWR.pdb
     RDKit          3D

 33 35  0  0  1  0  0  0  0  0999 V2000
    6.7958  -15.3567   20.6283 N   0  0  0  0  0  0  0  0  0  0  0  0
    5.8053  -14.2981   20.5374 C   0  0  0  0  0  0  0  0  0  0  0  0
    6.5833  -13.0236   20.8995 C   0  0  0  0  0  0  0  0  0  0  0  0
    7.8679  -13.2885   20.1444 C   0  0  0  0  0  0  0  0  0  0  0  0
    8.0767  -14.7619   20.4010 C   0  0  1  0  0  0  0  0  0  0  0  0
    8.9051  -14.8668   21.6571 C   0  0  0  0  0  0  0  0  0  0  0  0
   10.0014  -14.2524   21.7244 O   0  0  0  0  0  0  0  0  0  0  0  0
    8.4320  -15.6540   22.7329 N   0  0  0  0  0  0  0  0  0  0  0  0
    9.1948  -15.9020   23.9334 C   0  0  1  0  0  0  0  0  0  0  0  0
    8.3119  -16.2103   25.0820 C   0  0  0  0  0  0  0  0  0  0  0  0
    7.3529  -15.0756   25.2581 C   0  0  0  0  0  0  0  0  0  0  0  0
    6.0198  -15.0245   24.9226 C   0  0  0  0  0  0  0  0  0  0  0  0
    5.4864  -13.8286   25.2361 N   0  0  0  0  0  0  0  0  0  0  0  0
    6.4683  -13.0828   25.7817 C   0  0  0  0  0  0  0  0  0  0  0  0
    6.5036  -11.8024   26.2784 C   0  0  0  0  0  0  0  0  0  0  0  0
    7.6659  -11.2673   26.7913 C   0  0  0  0  0  0  0  0  0  0  0  0
    8.8116  -12.0272   26.8070 C   0  0  0  0  0  0  0  0  0  0  0  0
    8.7922  -13.3079   26.3144 C   0  0  0  0  0  0  0  0  0  0  0  0
    7.6271  -13.8260   25.8071 C   0  0  0  0  0  0  0  0  0  0  0  0
   10.2966  -16.8828   23.7332 C   0  0  0  0  0  0  0  0  0  0  0  0
   10.0302  -17.9677   23.1856 O   0  0  0  0  0  0  0  0  0  0  0  0
   17.3226  -19.6344   21.9452 N   0  0  0  0  0  0  0  0  0  0  0  0
   18.0845  -18.6466   22.7031 C   0  0  0  0  0  0  0  0  0  0  0  0
   19.1742  -19.0030   23.1931 N   0  0  0  0  0  0  0  0  0  0  0  0
   17.5614  -17.3417   22.8512 N   0  0  0  0  0  0  0  0  0  0  0  0
   16.2505  -16.8909   22.5269 C   0  0  0  0  0  0  0  0  0  0  0  0
   15.0931  -17.6759   23.0121 C   0  0  0  0  0  0  0  0  0  0  0  0
   13.8847  -16.7868   23.2763 C   0  0  0  0  0  0  0  0  0  0  0  0
   12.7297  -17.5302   23.8480 C   0  0  2  0  0  0  0  0  0  0  0  0
   11.6199  -16.6136   24.1455 N   0  0  0  0  0  0  0  0  0  0  0  0
   13.0421  -18.3476   25.0384 C   0  0  0  0  0  0  0  0  0  0  0  0
   13.7464  -19.5548   24.8676 O   0  0  0  0  0  0  0  0  0  0  0  0
   12.7331  -18.0614   26.2076 O   0  0  0  0  0  0  0  0  0  0  0  0
  1  2  1  0
  3  2  1  0
  4  5  1  0
  4  3  1  0
  5  1  1  0
  5  6  1  1
  6  7  2  0
  8  6  1  0
  9  8  1  0
  9 10  1  1
 11 10  1  0
 12 11  2  0
 13 14  1  0
 13 12  1  0
 14 19  2  0
 15 16  2  0
 15 14  1  0
 16 17  1  0
 17 18  2  0
 19 18  1  0
 19 11  1  0
 20  9  1  0
 20 21  2  0
 22 23  1  0
 23 25  1  0
 24 23  2  0
 25 26  1  0
 26 27  1  0
 28 27  1  0
 29 30  1  0
 29 28  1  1
 30 20  1  0
 31 29  1  0
 32 31  1  0
 33 31  2  0
M  END
$$$$
