PWR.pdb
     RDKit          3D

 33 35  0  0  1  0  0  0  0  0999 V2000
    7.8594  -14.9405   18.4705 N   0  0  0  0  0  0  0  0  0  0  0  0
    6.9157  -13.9198   18.0492 C   0  0  0  0  0  0  0  0  0  0  0  0
    7.3126  -12.6809   18.8667 C   0  0  0  0  0  0  0  0  0  0  0  0
    8.8191  -12.7834   18.7660 C   0  0  0  0  0  0  0  0  0  0  0  0
    9.0372  -14.2690   18.9269 C   0  0  1  0  0  0  0  0  0  0  0  0
    9.2140  -14.5206   20.4034 C   0  0  0  0  0  0  0  0  0  0  0  0
   10.3127  -14.2385   20.9486 O   0  0  0  0  0  0  0  0  0  0  0  0
    8.1409  -15.0687   21.1442 N   0  0  0  0  0  0  0  0  0  0  0  0
    8.1749  -15.2550   22.5756 C   0  0  1  0  0  0  0  0  0  0  0  0
    6.8328  -15.0790   23.1767 C   0  0  0  0  0  0  0  0  0  0  0  0
    6.9941  -14.9310   24.6566 C   0  0  0  0  0  0  0  0  0  0  0  0
    7.0165  -15.9168   25.6159 C   0  0  0  0  0  0  0  0  0  0  0  0
    7.1816  -15.3933   26.8454 N   0  0  0  0  0  0  0  0  0  0  0  0
    7.2692  -14.0554   26.7026 C   0  0  0  0  0  0  0  0  0  0  0  0
    7.4385  -13.0285   27.5993 C   0  0  0  0  0  0  0  0  0  0  0  0
    7.4957  -11.7166   27.1800 C   0  0  0  0  0  0  0  0  0  0  0  0
    7.3814  -11.4284   25.8405 C   0  0  0  0  0  0  0  0  0  0  0  0
    7.2118  -12.4433   24.9325 C   0  0  0  0  0  0  0  0  0  0  0  0
    7.1569  -13.7442   25.3660 C   0  0  0  0  0  0  0  0  0  0  0  0
    8.8647  -16.5090   22.9851 C   0  0  0  0  0  0  0  0  0  0  0  0
    8.6499  -17.5436   22.3283 O   0  0  0  0  0  0  0  0  0  0  0  0
   15.1051  -14.0080   19.4441 N   0  0  0  0  0  0  0  0  0  0  0  0
   13.9850  -14.9019   19.7216 C   0  0  0  0  0  0  0  0  0  0  0  0
   13.4609  -15.4948   18.7581 N   0  0  0  0  0  0  0  0  0  0  0  0
   13.5432  -15.0560   21.0556 N   0  0  0  0  0  0  0  0  0  0  0  0
   14.1736  -15.7921   22.0984 C   0  0  0  0  0  0  0  0  0  0  0  0
   13.3541  -16.7340   22.8936 C   0  0  0  0  0  0  0  0  0  0  0  0
   11.9239  -16.2345   23.0536 C   0  0  0  0  0  0  0  0  0  0  0  0
   11.1128  -17.0777   23.9726 C   0  0  2  0  0  0  0  0  0  0  0  0
    9.7456  -16.5506   24.0878 N   0  0  0  0  0  0  0  0  0  0  0  0
   11.6940  -17.2713   25.3170 C   0  0  0  0  0  0  0  0  0  0  0  0
   11.7232  -16.1811   26.2078 O   0  0  0  0  0  0  0  0  0  0  0  0
   12.1721  -18.3349   25.7467 O   0  0  0  0  0  0  0  0  0  0  0  0
  1  2  1  0
  3  2  1  0
  4  5  1  0
  4  3  1  0
  5  1  1  0
  5  6  1  1
  6  7  2  0
  8  6  1  0
  9  8  1  0
  9 10  1  6
 11 10  1  0
 12 11  2  0
 13 14  1  0
 13 12  1  0
 14 19  2  0
 15 16  2  0
 15 14  1  0
 16 17  1  0
 17 18  2  0
 19 18  1  0
 19 11  1  0
 20  9  1  0
 20 21  2  0
 22 23  1  0
 23 25  1  0
 24 23  2  0
 25 26  1  0
 26 27  1  0
 28 27  1  0
 29 30  1  0
 29 28  1  6
 30 20  1  0
 31 29  1  0
 32 31  1  0
 33 31  2  0
M  END
$$$$
