AIA.pdb
     RDKit          3D

 19 18  0  0  1  0  0  0  0  0999 V2000
    8.3009  -19.6012   18.0595 C   0  0  0  0  0  0  0  0  0  0  0  0
    8.3899  -18.1778   17.5568 C   0  0  2  0  0  0  0  0  0  0  0  0
    9.0958  -18.2109   16.2908 N   0  0  0  0  0  0  0  0  0  0  0  0
    9.0461  -17.2717   18.5267 C   0  0  0  0  0  0  0  0  0  0  0  0
   10.2973  -17.1782   18.4994 O   0  0  0  0  0  0  0  0  0  0  0  0
    6.7196  -12.6323   20.0277 C   0  0  0  0  0  0  0  0  0  0  0  0
    7.8048  -13.6276   19.6886 C   0  0  0  0  0  0  0  0  0  0  0  0
    8.0944  -14.5618   20.8299 C   0  0  2  0  0  0  0  0  0  0  0  0
    8.5168  -13.8192   22.0782 C   0  0  0  0  0  0  0  0  0  0  0  0
    9.0238  -15.6750   20.4818 C   0  0  2  0  0  0  0  0  0  0  0  0
    8.3358  -16.5053   19.4834 N   0  0  0  0  0  0  0  0  0  0  0  0
    9.3618  -16.5296   21.6514 C   0  0  0  0  0  0  0  0  0  0  0  0
    8.4984  -17.2031   22.2699 O   0  0  0  0  0  0  0  0  0  0  0  0
   12.5349  -18.0143   22.9964 C   0  0  0  0  0  0  0  0  0  0  0  0
   11.1028  -17.5808   23.1443 C   0  0  2  0  0  0  0  0  0  0  0  0
   10.6989  -16.6240   22.1294 N   0  0  0  0  0  0  0  0  0  0  0  0
   10.9760  -16.9409   24.4821 C   0  0  0  0  0  0  0  0  0  0  0  0
   10.6492  -15.5801   24.4972 O   0  0  0  0  0  0  0  0  0  0  0  0
   11.1499  -17.5750   25.5508 O   0  0  0  0  0  0  0  0  0  0  0  0
  2  1  1  1
  2  3  1  0
  4  5  2  0
  4  2  1  0
  6  7  1  0
  7  8  1  0
  8 10  1  0
  8  9  1  1
 10 11  1  6
 10 12  1  0
 11  4  1  0
 12 13  2  0
 15 14  1  6
 15 17  1  0
 16 12  1  0
 16 15  1  0
 17 18  1  0
 19 17  2  0
M  END
$$$$
