AIA.pdb
     RDKit          3D

 19 18  0  0  1  0  0  0  0  0999 V2000
    6.0235  -19.7585   24.3344 C   0  0  0  0  0  0  0  0  0  0  0  0
    5.3324  -18.4443   24.0481 C   0  0  2  0  0  0  0  0  0  0  0  0
    4.5995  -18.6038   22.8073 N   0  0  0  0  0  0  0  0  0  0  0  0
    6.2778  -17.3064   23.9839 C   0  0  0  0  0  0  0  0  0  0  0  0
    6.7376  -16.9789   22.8630 O   0  0  0  0  0  0  0  0  0  0  0  0
    6.0569  -12.7345   25.3665 C   0  0  0  0  0  0  0  0  0  0  0  0
    6.1265  -13.9658   26.2395 C   0  0  0  0  0  0  0  0  0  0  0  0
    7.4847  -14.6090   26.2057 C   0  0  2  0  0  0  0  0  0  0  0  0
    8.5962  -13.5977   26.3787 C   0  0  0  0  0  0  0  0  0  0  0  0
    7.7020  -15.5065   25.0347 C   0  0  2  0  0  0  0  0  0  0  0  0
    6.6901  -16.5686   25.1209 N   0  0  0  0  0  0  0  0  0  0  0  0
    9.0483  -16.1388   25.0361 C   0  0  0  0  0  0  0  0  0  0  0  0
    9.4630  -16.8464   25.9896 O   0  0  0  0  0  0  0  0  0  0  0  0
   11.7993  -16.5734   22.4461 C   0  0  0  0  0  0  0  0  0  0  0  0
   11.1639  -16.7374   23.7989 C   0  0  2  0  0  0  0  0  0  0  0  0
    9.9405  -15.9680   23.9407 N   0  0  0  0  0  0  0  0  0  0  0  0
   12.1497  -16.2580   24.8056 C   0  0  0  0  0  0  0  0  0  0  0  0
   13.3467  -16.9768   24.9020 O   0  0  0  0  0  0  0  0  0  0  0  0
   11.9338  -15.2622   25.5379 O   0  0  0  0  0  0  0  0  0  0  0  0
  2  1  1  6
  2  3  1  0
  4  5  2  0
  4  2  1  0
  6  7  1  0
  7  8  1  0
  8 10  1  0
  8  9  1  6
 10 11  1  1
 10 12  1  0
 11  4  1  0
 12 13  2  0
 15 14  1  6
 15 17  1  0
 16 12  1  0
 16 15  1  0
 17 18  1  0
 19 17  2  0
M  END
$$$$
