AIA.pdb
     RDKit          3D

 19 18  0  0  1  0  0  0  0  0999 V2000
    6.2710  -16.2435   21.0322 C   0  0  0  0  0  0  0  0  0  0  0  0
    6.7082  -14.8018   21.1635 C   0  0  2  0  0  0  0  0  0  0  0  0
    7.3470  -14.4297   19.9164 N   0  0  0  0  0  0  0  0  0  0  0  0
    7.6011  -14.5814   22.3239 C   0  0  0  0  0  0  0  0  0  0  0  0
    8.8397  -14.5538   22.1233 O   0  0  0  0  0  0  0  0  0  0  0  0
    5.8548  -11.4825   26.3639 C   0  0  0  0  0  0  0  0  0  0  0  0
    6.7553  -12.1350   25.3410 C   0  0  0  0  0  0  0  0  0  0  0  0
    7.2979  -13.4521   25.8208 C   0  0  2  0  0  0  0  0  0  0  0  0
    8.0738  -13.3100   27.1116 C   0  0  0  0  0  0  0  0  0  0  0  0
    8.0476  -14.2144   24.7813 C   0  0  2  0  0  0  0  0  0  0  0  0
    7.1307  -14.4001   23.6479 N   0  0  0  0  0  0  0  0  0  0  0  0
    8.4869  -15.5543   25.2548 C   0  0  0  0  0  0  0  0  0  0  0  0
    7.6784  -16.4261   25.6648 O   0  0  0  0  0  0  0  0  0  0  0  0
   11.6434  -17.5877   24.9700 C   0  0  0  0  0  0  0  0  0  0  0  0
   10.3223  -17.2498   25.6031 C   0  0  2  0  0  0  0  0  0  0  0  0
    9.8636  -15.9142   25.2648 N   0  0  0  0  0  0  0  0  0  0  0  0
   10.5106  -17.3316   27.0772 C   0  0  0  0  0  0  0  0  0  0  0  0
   10.8464  -18.5867   27.5973 O   0  0  0  0  0  0  0  0  0  0  0  0
   10.3787  -16.3355   27.8289 O   0  0  0  0  0  0  0  0  0  0  0  0
  2  1  1  6
  2  3  1  0
  4  5  2  0
  4  2  1  0
  6  7  1  0
  7  8  1  0
  8 10  1  0
  8  9  1  1
 10 11  1  6
 10 12  1  0
 11  4  1  0
 12 13  2  0
 15 14  1  6
 15 17  1  0
 16 12  1  0
 16 15  1  0
 17 18  1  0
 19 17  2  0
M  END
$$$$
