AIA.pdb
     RDKit          3D

 19 18  0  0  1  0  0  0  0  0999 V2000
    6.5491  -16.0161   20.6290 C   0  0  0  0  0  0  0  0  0  0  0  0
    6.9905  -14.5760   20.7636 C   0  0  2  0  0  0  0  0  0  0  0  0
    7.7395  -14.2410   19.5683 N   0  0  0  0  0  0  0  0  0  0  0  0
    7.7820  -14.3360   21.9918 C   0  0  0  0  0  0  0  0  0  0  0  0
    9.0334  -14.3836   21.9105 O   0  0  0  0  0  0  0  0  0  0  0  0
    7.2165  -11.6020   27.4610 C   0  0  0  0  0  0  0  0  0  0  0  0
    8.0044  -12.5652   26.6040 C   0  0  0  0  0  0  0  0  0  0  0  0
    7.2548  -12.9649   25.3639 C   0  0  2  0  0  0  0  0  0  0  0  0
    5.8681  -13.4799   25.6802 C   0  0  0  0  0  0  0  0  0  0  0  0
    8.0151  -13.8786   24.4634 C   0  0  2  0  0  0  0  0  0  0  0  0
    7.2008  -14.0555   23.2530 N   0  0  0  0  0  0  0  0  0  0  0  0
    8.2539  -15.2161   25.0688 C   0  0  0  0  0  0  0  0  0  0  0  0
    7.3333  -16.0555   25.2411 O   0  0  0  0  0  0  0  0  0  0  0  0
   11.1174  -17.5053   25.3193 C   0  0  0  0  0  0  0  0  0  0  0  0
    9.8601  -16.9579   25.9356 C   0  0  2  0  0  0  0  0  0  0  0  0
    9.5558  -15.6109   25.4864 N   0  0  0  0  0  0  0  0  0  0  0  0
   10.0700  -16.9345   27.4089 C   0  0  0  0  0  0  0  0  0  0  0  0
   10.3323  -18.1640   28.0239 O   0  0  0  0  0  0  0  0  0  0  0  0
   10.0176  -15.8753   28.0795 O   0  0  0  0  0  0  0  0  0  0  0  0
  2  1  1  6
  2  3  1  0
  4  5  2  0
  4  2  1  0
  6  7  1  0
  7  8  1  0
  8 10  1  0
  8  9  1  1
 10 11  1  6
 10 12  1  0
 11  4  1  0
 12 13  2  0
 15 14  1  6
 15 17  1  0
 16 12  1  0
 16 15  1  0
 17 18  1  0
 19 17  2  0
M  END
$$$$
