AIA.pdb
     RDKit          3D

 19 18  0  0  1  0  0  0  0  0999 V2000
    6.2660  -16.1203   20.9790 C   0  0  0  0  0  0  0  0  0  0  0  0
    6.8246  -14.7285   21.1728 C   0  0  2  0  0  0  0  0  0  0  0  0
    7.5478  -14.3820   19.9650 N   0  0  0  0  0  0  0  0  0  0  0  0
    7.6826  -14.6221   22.3750 C   0  0  0  0  0  0  0  0  0  0  0  0
    8.9247  -14.7262   22.2292 O   0  0  0  0  0  0  0  0  0  0  0  0
    5.7843  -11.5726   26.4186 C   0  0  0  0  0  0  0  0  0  0  0  0
    6.7307  -12.1855   25.4127 C   0  0  0  0  0  0  0  0  0  0  0  0
    7.2739  -13.5078   25.8772 C   0  0  2  0  0  0  0  0  0  0  0  0
    8.0130  -13.3877   27.1916 C   0  0  0  0  0  0  0  0  0  0  0  0
    8.0592  -14.2387   24.8415 C   0  0  2  0  0  0  0  0  0  0  0  0
    7.1748  -14.4089   23.6803 N   0  0  0  0  0  0  0  0  0  0  0  0
    8.5010  -15.5840   25.2970 C   0  0  0  0  0  0  0  0  0  0  0  0
    7.6910  -16.4788   25.6507 O   0  0  0  0  0  0  0  0  0  0  0  0
   11.6676  -17.5691   24.9571 C   0  0  0  0  0  0  0  0  0  0  0  0
   10.3475  -17.2738   25.6133 C   0  0  2  0  0  0  0  0  0  0  0  0
    9.8819  -15.9231   25.3534 N   0  0  0  0  0  0  0  0  0  0  0  0
   10.5419  -17.4387   27.0796 C   0  0  0  0  0  0  0  0  0  0  0  0
   10.3290  -16.3044   27.8713 O   0  0  0  0  0  0  0  0  0  0  0  0
   10.8791  -18.5318   27.5952 O   0  0  0  0  0  0  0  0  0  0  0  0
  2  1  1  6
  2  3  1  0
  4  5  2  0
  4  2  1  0
  6  7  1  0
  7  8  1  0
  8 10  1  0
  8  9  1  1
 10 11  1  6
 10 12  1  0
 11  4  1  0
 12 13  2  0
 15 14  1  6
 15 17  1  0
 16 12  1  0
 16 15  1  0
 17 18  1  0
 19 17  2  0
M  END
$$$$
