AIA.pdb
     RDKit          3D

 19 18  0  0  1  0  0  0  0  0999 V2000
    6.5378  -16.6582   21.2981 C   0  0  0  0  0  0  0  0  0  0  0  0
    6.9127  -15.2000   21.4386 C   0  0  2  0  0  0  0  0  0  0  0  0
    7.5484  -14.7968   20.1996 N   0  0  0  0  0  0  0  0  0  0  0  0
    7.7834  -14.9465   22.6092 C   0  0  0  0  0  0  0  0  0  0  0  0
    9.0268  -14.9665   22.4398 O   0  0  0  0  0  0  0  0  0  0  0  0
    6.0067  -11.5409   26.2955 C   0  0  0  0  0  0  0  0  0  0  0  0
    6.9612  -12.2813   25.3879 C   0  0  0  0  0  0  0  0  0  0  0  0
    7.4461  -13.5652   26.0009 C   0  0  2  0  0  0  0  0  0  0  0  0
    8.2084  -13.3284   27.2859 C   0  0  0  0  0  0  0  0  0  0  0  0
    8.1808  -14.4509   25.0523 C   0  0  2  0  0  0  0  0  0  0  0  0
    7.2866  -14.6829   23.9095 N   0  0  0  0  0  0  0  0  0  0  0  0
    8.5323  -15.7674   25.6488 C   0  0  0  0  0  0  0  0  0  0  0  0
    7.6651  -16.5623   26.0939 O   0  0  0  0  0  0  0  0  0  0  0  0
   11.5314  -18.0189   25.6213 C   0  0  0  0  0  0  0  0  0  0  0  0
   10.2651  -17.5013   26.2452 C   0  0  2  0  0  0  0  0  0  0  0  0
    9.8872  -16.1921   25.7434 N   0  0  0  0  0  0  0  0  0  0  0  0
   10.5095  -17.3997   27.7098 C   0  0  0  0  0  0  0  0  0  0  0  0
   10.7796  -18.5959   28.3844 O   0  0  0  0  0  0  0  0  0  0  0  0
   10.4786  -16.3055   28.3231 O   0  0  0  0  0  0  0  0  0  0  0  0
  2  1  1  6
  2  3  1  0
  4  5  2  0
  4  2  1  0
  6  7  1  0
  7  8  1  0
  8 10  1  0
  8  9  1  1
 10 11  1  6
 10 12  1  0
 11  4  1  0
 12 13  2  0
 15 14  1  6
 15 17  1  0
 16 12  1  0
 16 15  1  0
 17 18  1  0
 19 17  2  0
M  END
$$$$
