AIA.pdb
     RDKit          3D

 19 18  0  0  1  0  0  0  0  0999 V2000
    6.2718  -16.0997   20.9708 C   0  0  0  0  0  0  0  0  0  0  0  0
    6.7732  -14.6858   21.1610 C   0  0  2  0  0  0  0  0  0  0  0  0
    7.4408  -14.2963   19.9344 N   0  0  0  0  0  0  0  0  0  0  0  0
    7.6638  -14.5512   22.3363 C   0  0  0  0  0  0  0  0  0  0  0  0
    8.9043  -14.5695   22.1466 O   0  0  0  0  0  0  0  0  0  0  0  0
    5.8623  -11.5863   26.4327 C   0  0  0  0  0  0  0  0  0  0  0  0
    6.7952  -12.1920   25.4101 C   0  0  0  0  0  0  0  0  0  0  0  0
    7.3500  -13.5141   25.8612 C   0  0  2  0  0  0  0  0  0  0  0  0
    8.1290  -13.3921   27.1521 C   0  0  0  0  0  0  0  0  0  0  0  0
    8.1023  -14.2490   24.8039 C   0  0  2  0  0  0  0  0  0  0  0  0
    7.1891  -14.4029   23.6628 N   0  0  0  0  0  0  0  0  0  0  0  0
    8.5386  -15.6016   25.2424 C   0  0  0  0  0  0  0  0  0  0  0  0
    7.7267  -16.4878   25.6131 O   0  0  0  0  0  0  0  0  0  0  0  0
   11.6989  -17.6208   24.9271 C   0  0  0  0  0  0  0  0  0  0  0  0
   10.3736  -17.3033   25.5621 C   0  0  2  0  0  0  0  0  0  0  0  0
    9.9162  -15.9581   25.2621 N   0  0  0  0  0  0  0  0  0  0  0  0
   10.5527  -17.4303   27.0341 C   0  0  0  0  0  0  0  0  0  0  0  0
   10.8827  -18.7014   27.5177 O   0  0  0  0  0  0  0  0  0  0  0  0
   10.4181  -16.4574   27.8150 O   0  0  0  0  0  0  0  0  0  0  0  0
  2  1  1  6
  2  3  1  0
  4  5  2  0
  4  2  1  0
  6  7  1  0
  7  8  1  0
  8 10  1  0
  8  9  1  1
 10 11  1  6
 10 12  1  0
 11  4  1  0
 12 13  2  0
 15 14  1  6
 15 17  1  0
 16 12  1  0
 16 15  1  0
 17 18  1  0
 19 17  2  0
M  END
$$$$
