AIA.pdb
     RDKit          3D

 19 18  0  0  1  0  0  0  0  0999 V2000
    7.1389  -17.0492   21.3124 C   0  0  0  0  0  0  0  0  0  0  0  0
    7.4422  -15.5691   21.2493 C   0  0  2  0  0  0  0  0  0  0  0  0
    8.2394  -15.3425   20.0598 N   0  0  0  0  0  0  0  0  0  0  0  0
    8.1233  -15.0754   22.4679 C   0  0  0  0  0  0  0  0  0  0  0  0
    9.3774  -15.1077   22.5016 O   0  0  0  0  0  0  0  0  0  0  0  0
    6.8470  -11.3637   27.2209 C   0  0  0  0  0  0  0  0  0  0  0  0
    7.8287  -12.3101   26.5700 C   0  0  0  0  0  0  0  0  0  0  0  0
    7.2154  -13.0628   25.4226 C   0  0  2  0  0  0  0  0  0  0  0  0
    5.8926  -13.6926   25.7992 C   0  0  0  0  0  0  0  0  0  0  0  0
    8.1434  -14.0266   24.7640 C   0  0  2  0  0  0  0  0  0  0  0  0
    7.4337  -14.5687   23.5970 N   0  0  0  0  0  0  0  0  0  0  0  0
    8.5224  -15.1587   25.6512 C   0  0  0  0  0  0  0  0  0  0  0  0
    7.7521  -16.1260   25.8810 O   0  0  0  0  0  0  0  0  0  0  0  0
   11.7024  -16.7317   26.5311 C   0  0  0  0  0  0  0  0  0  0  0  0
   10.3018  -16.3846   26.9534 C   0  0  2  0  0  0  0  0  0  0  0  0
    9.7938  -15.1974   26.2892 N   0  0  0  0  0  0  0  0  0  0  0  0
   10.3371  -16.1338   28.4200 C   0  0  0  0  0  0  0  0  0  0  0  0
    9.8437  -14.8991   28.8565 O   0  0  0  0  0  0  0  0  0  0  0  0
   10.7831  -16.9760   29.2364 O   0  0  0  0  0  0  0  0  0  0  0  0
  2  1  1  1
  2  3  1  0
  4  5  2  0
  4  2  1  0
  6  7  1  0
  7  8  1  0
  8 10  1  0
  8  9  1  1
 10 11  1  6
 10 12  1  0
 11  4  1  0
 12 13  2  0
 15 14  1  6
 15 17  1  0
 16 12  1  0
 16 15  1  0
 17 18  1  0
 19 17  2  0
M  END
$$$$
