LYW.pdb
     RDKit          3D

 35 37  0  0  1  0  0  0  0  0999 V2000
    7.5611  -13.3364   19.3418 C   0  0  0  0  0  0  0  0  0  0  0  0
    8.7826  -14.2258   19.2944 C   0  0  1  0  0  0  0  0  0  0  0  0
   10.0378  -13.3938   19.4792 C   0  0  0  0  0  0  0  0  0  0  0  0
    8.7353  -15.3547   20.2920 C   0  0  0  0  0  0  0  0  0  0  0  0
   10.0850  -15.9958   20.3839 C   0  0  2  0  0  0  0  0  0  0  0  0
   10.2560  -17.0417   19.4291 N   0  0  0  0  0  0  0  0  0  0  0  0
   10.4169  -16.4758   21.7348 C   0  0  0  0  0  0  0  0  0  0  0  0
   10.3945  -17.7135   21.9477 O   0  0  0  0  0  0  0  0  0  0  0  0
   11.5755  -15.6969   30.6214 O   0  0  0  0  0  0  0  0  0  0  0  0
   11.5812  -15.5613   29.2303 C   0  0  0  0  0  0  0  0  0  0  0  0
   11.0518  -14.4418   28.6572 C   0  0  0  0  0  0  0  0  0  0  0  0
   11.0521  -14.2961   27.2744 C   0  0  0  0  0  0  0  0  0  0  0  0
   11.5756  -15.2550   26.4401 C   0  0  0  0  0  0  0  0  0  0  0  0
   11.5699  -15.0807   24.9980 C   0  0  0  0  0  0  0  0  0  0  0  0
   10.9914  -16.1925   24.1768 C   0  0  2  0  0  0  0  0  0  0  0  0
   10.7605  -15.6362   22.8144 N   0  0  0  0  0  0  0  0  0  0  0  0
    9.7010  -16.7207   24.6096 C   0  0  0  0  0  0  0  0  0  0  0  0
    9.6364  -17.5685   25.5725 O   0  0  0  0  0  0  0  0  0  0  0  0
   12.1113  -16.3919   27.0532 C   0  0  0  0  0  0  0  0  0  0  0  0
   12.1142  -16.5428   28.4259 C   0  0  0  0  0  0  0  0  0  0  0  0
    8.4223  -16.3889   24.0666 N   0  0  0  0  0  0  0  0  0  0  0  0
    7.1929  -16.8830   24.6523 C   0  0  1  0  0  0  0  0  0  0  0  0
    6.1442  -15.7969   24.4889 C   0  0  0  0  0  0  0  0  0  0  0  0
    6.6647  -14.4663   24.8736 C   0  0  0  0  0  0  0  0  0  0  0  0
    7.6218  -13.7155   24.2453 C   0  0  0  0  0  0  0  0  0  0  0  0
    7.8025  -12.5765   24.9161 N   0  0  0  0  0  0  0  0  0  0  0  0
    6.9794  -12.5653   25.9766 C   0  0  0  0  0  0  0  0  0  0  0  0
    6.7862  -11.6053   26.9832 C   0  0  0  0  0  0  0  0  0  0  0  0
    5.8718  -11.8080   27.9903 C   0  0  0  0  0  0  0  0  0  0  0  0
    5.1583  -12.9809   27.9733 C   0  0  0  0  0  0  0  0  0  0  0  0
    5.3433  -13.9249   26.9898 C   0  0  0  0  0  0  0  0  0  0  0  0
    6.2721  -13.7254   25.9617 C   0  0  0  0  0  0  0  0  0  0  0  0
    6.7514  -18.1835   24.1741 C   0  0  0  0  0  0  0  0  0  0  0  0
    5.7606  -18.8149   24.6229 O   0  0  0  0  0  0  0  0  0  0  0  0
    7.4361  -18.8184   23.1497 O   0  0  0  0  0  0  0  0  0  0  0  0
  2  3  1  1
  2  1  1  0
  4  2  1  0
  5  4  1  0
  5  6  1  6
  7  8  2  0
  7  5  1  0
  9 10  1  0
 10 11  2  0
 11 12  1  0
 13 12  2  0
 13 14  1  0
 15 14  1  1
 15 16  1  0
 16  7  1  0
 17 15  1  0
 17 18  2  0
 19 13  1  0
 20 10  1  0
 20 19  2  0
 21 17  1  0
 22 21  1  0
 22 23  1  6
 24 23  1  0
 24 25  2  0
 26 25  1  0
 27 26  1  0
 28 27  2  0
 29 28  1  0
 30 29  2  0
 30 31  1  0
 31 32  2  0
 32 27  1  0
 32 24  1  0
 33 22  1  0
 34 33  2  0
 35 33  1  0
M  END
$$$$
