LYW.pdb
     RDKit          3D

 35 37  0  0  1  0  0  0  0  0999 V2000
    6.3104  -12.4397   20.4623 C   0  0  0  0  0  0  0  0  0  0  0  0
    7.3445  -13.4191   19.9556 C   0  0  1  0  0  0  0  0  0  0  0  0
    8.6723  -12.7135   19.7530 C   0  0  0  0  0  0  0  0  0  0  0  0
    7.5077  -14.6249   20.8451 C   0  0  0  0  0  0  0  0  0  0  0  0
    8.6020  -15.4951   20.3098 C   0  0  2  0  0  0  0  0  0  0  0  0
    8.2651  -16.0809   19.0536 N   0  0  0  0  0  0  0  0  0  0  0  0
    9.0452  -16.5312   21.2561 C   0  0  0  0  0  0  0  0  0  0  0  0
    8.3908  -17.6018   21.3142 O   0  0  0  0  0  0  0  0  0  0  0  0
   12.0709  -21.4229   18.2227 O   0  0  0  0  0  0  0  0  0  0  0  0
   12.0194  -20.5630   19.3235 C   0  0  0  0  0  0  0  0  0  0  0  0
   11.5493  -21.0220   20.5195 C   0  0  0  0  0  0  0  0  0  0  0  0
   11.4936  -20.1756   21.6212 C   0  0  0  0  0  0  0  0  0  0  0  0
   11.9018  -18.8646   21.5552 C   0  0  0  0  0  0  0  0  0  0  0  0
   11.8393  -17.9986   22.7198 C   0  0  0  0  0  0  0  0  0  0  0  0
   10.4935  -17.4626   23.1023 C   0  0  2  0  0  0  0  0  0  0  0  0
   10.1614  -16.4041   22.1083 N   0  0  0  0  0  0  0  0  0  0  0  0
   10.3941  -16.8194   24.4092 C   0  0  0  0  0  0  0  0  0  0  0  0
   11.0370  -15.7334   24.6490 O   0  0  0  0  0  0  0  0  0  0  0  0
   12.3788  -18.4201   20.3182 C   0  0  0  0  0  0  0  0  0  0  0  0
   12.4368  -19.2555   19.2201 C   0  0  0  0  0  0  0  0  0  0  0  0
    9.6204  -17.2713   25.5215 N   0  0  0  0  0  0  0  0  0  0  0  0
    9.8579  -16.7837   26.8648 C   0  0  1  0  0  0  0  0  0  0  0  0
    8.5042  -16.4836   27.4842 C   0  0  0  0  0  0  0  0  0  0  0  0
    7.7128  -15.5500   26.6526 C   0  0  0  0  0  0  0  0  0  0  0  0
    6.7673  -15.8479   25.7083 C   0  0  0  0  0  0  0  0  0  0  0  0
    6.2915  -14.7164   25.1853 N   0  0  0  0  0  0  0  0  0  0  0  0
    6.9090  -13.6778   25.7705 C   0  0  0  0  0  0  0  0  0  0  0  0
    6.7685  -12.2940   25.5769 C   0  0  0  0  0  0  0  0  0  0  0  0
    7.5181  -11.3970   26.3013 C   0  0  0  0  0  0  0  0  0  0  0  0
    8.4058  -11.9051   27.2172 C   0  0  0  0  0  0  0  0  0  0  0  0
    8.5477  -13.2597   27.4111 C   0  0  0  0  0  0  0  0  0  0  0  0
    7.7881  -14.1785   26.6775 C   0  0  0  0  0  0  0  0  0  0  0  0
   10.6951  -17.6315   27.6986 C   0  0  0  0  0  0  0  0  0  0  0  0
   11.1032  -18.7766   27.3764 O   0  0  0  0  0  0  0  0  0  0  0  0
   11.1026  -17.1943   28.9492 O   0  0  0  0  0  0  0  0  0  0  0  0
  2  3  1  1
  2  1  1  0
  4  2  1  0
  5  4  1  0
  5  6  1  6
  7  8  2  0
  7  5  1  0
  9 10  1  0
 10 11  2  0
 11 12  1  0
 13 12  2  0
 13 14  1  0
 15 14  1  6
 15 16  1  0
 16  7  1  0
 17 15  1  0
 17 18  2  0
 19 13  1  0
 20 10  1  0
 20 19  2  0
 21 17  1  0
 22 21  1  0
 22 23  1  1
 24 23  1  0
 24 25  2  0
 26 25  1  0
 27 26  1  0
 28 27  2  0
 29 28  1  0
 30 29  2  0
 30 31  1  0
 31 32  2  0
 32 27  1  0
 32 24  1  0
 33 22  1  0
 34 33  2  0
 35 33  1  0
M  END
$$$$
