LYW.pdb
     RDKit          3D

 35 37  0  0  1  0  0  0  0  0999 V2000
    6.8794  -12.2908   19.3929 C   0  0  0  0  0  0  0  0  0  0  0  0
    7.9672  -13.3400   19.4281 C   0  0  1  0  0  0  0  0  0  0  0  0
    9.3286  -12.6802   19.3124 C   0  0  0  0  0  0  0  0  0  0  0  0
    7.9012  -14.2244   20.6469 C   0  0  0  0  0  0  0  0  0  0  0  0
    9.0219  -15.2162   20.6046 C   0  0  2  0  0  0  0  0  0  0  0  0
    9.1921  -15.7890   19.3094 N   0  0  0  0  0  0  0  0  0  0  0  0
    8.9096  -16.2735   21.6219 C   0  0  0  0  0  0  0  0  0  0  0  0
    7.7633  -16.5880   22.0278 O   0  0  0  0  0  0  0  0  0  0  0  0
   11.1342  -23.4121   26.5672 O   0  0  0  0  0  0  0  0  0  0  0  0
   11.0659  -22.3245   25.6920 C   0  0  0  0  0  0  0  0  0  0  0  0
   12.1779  -21.5669   25.4655 C   0  0  0  0  0  0  0  0  0  0  0  0
   12.1215  -20.4828   24.5968 C   0  0  0  0  0  0  0  0  0  0  0  0
   10.9653  -20.1333   23.9406 C   0  0  0  0  0  0  0  0  0  0  0  0
   10.9294  -18.9993   23.0335 C   0  0  0  0  0  0  0  0  0  0  0  0
    9.8105  -18.0183   23.2087 C   0  0  2  0  0  0  0  0  0  0  0  0
   10.0078  -16.9626   22.1764 N   0  0  0  0  0  0  0  0  0  0  0  0
    9.7542  -17.3133   24.4859 C   0  0  0  0  0  0  0  0  0  0  0  0
    9.1734  -17.8496   25.4985 O   0  0  0  0  0  0  0  0  0  0  0  0
    9.8408  -20.9260   24.1907 C   0  0  0  0  0  0  0  0  0  0  0  0
    9.8900  -22.0041   25.0522 C   0  0  0  0  0  0  0  0  0  0  0  0
   10.3019  -16.0251   24.7698 N   0  0  0  0  0  0  0  0  0  0  0  0
   10.4101  -15.5235   26.1245 C   0  0  1  0  0  0  0  0  0  0  0  0
    9.1765  -15.9867   26.8794 C   0  0  0  0  0  0  0  0  0  0  0  0
    7.9431  -15.3568   26.3585 C   0  0  0  0  0  0  0  0  0  0  0  0
    6.9078  -15.9477   25.6851 C   0  0  0  0  0  0  0  0  0  0  0  0
    5.9886  -15.0270   25.3895 N   0  0  0  0  0  0  0  0  0  0  0  0
    6.4023  -13.8387   25.8576 C   0  0  0  0  0  0  0  0  0  0  0  0
    5.8046  -12.5690   25.8058 C   0  0  0  0  0  0  0  0  0  0  0  0
    6.4201  -11.4723   26.3624 C   0  0  0  0  0  0  0  0  0  0  0  0
    7.6369  -11.6664   26.9680 C   0  0  0  0  0  0  0  0  0  0  0  0
    8.2272  -12.9079   27.0218 C   0  0  0  0  0  0  0  0  0  0  0  0
    7.6066  -14.0286   26.4575 C   0  0  0  0  0  0  0  0  0  0  0  0
   11.6537  -15.8375   26.8098 C   0  0  0  0  0  0  0  0  0  0  0  0
   11.9154  -15.5274   28.0002 O   0  0  0  0  0  0  0  0  0  0  0  0
   12.6577  -16.5283   26.1496 O   0  0  0  0  0  0  0  0  0  0  0  0
  2  3  1  1
  2  1  1  0
  4  2  1  0
  5  4  1  0
  5  6  1  6
  7  8  2  0
  7  5  1  0
  9 10  1  0
 10 11  2  0
 11 12  1  0
 13 12  2  0
 13 14  1  0
 15 14  1  1
 15 16  1  0
 16  7  1  0
 17 15  1  0
 17 18  2  0
 19 13  1  0
 20 10  1  0
 20 19  2  0
 21 17  1  0
 22 21  1  0
 22 23  1  1
 24 23  1  0
 24 25  2  0
 26 25  1  0
 27 26  1  0
 28 27  2  0
 29 28  1  0
 30 29  2  0
 30 31  1  0
 31 32  2  0
 32 27  1  0
 32 24  1  0
 33 22  1  0
 34 33  2  0
 35 33  1  0
M  END
$$$$
