LYW.pdb
     RDKit          3D

 35 37  0  0  1  0  0  0  0  0999 V2000
    8.3894  -19.6460   16.9934 C   0  0  0  0  0  0  0  0  0  0  0  0
    8.5500  -19.6323   18.4966 C   0  0  1  0  0  0  0  0  0  0  0  0
    9.2608  -20.8922   18.9541 C   0  0  0  0  0  0  0  0  0  0  0  0
    9.2554  -18.4024   19.0081 C   0  0  0  0  0  0  0  0  0  0  0  0
    9.2691  -18.4216   20.5050 C   0  0  2  0  0  0  0  0  0  0  0  0
    7.9817  -18.6915   21.0569 N   0  0  0  0  0  0  0  0  0  0  0  0
    9.8382  -17.2036   21.1033 C   0  0  0  0  0  0  0  0  0  0  0  0
   10.9966  -16.8590   20.7610 O   0  0  0  0  0  0  0  0  0  0  0  0
    7.2997  -12.8481   17.0168 O   0  0  0  0  0  0  0  0  0  0  0  0
    7.6770  -13.1340   18.3319 C   0  0  0  0  0  0  0  0  0  0  0  0
    6.8877  -13.9363   19.1034 C   0  0  0  0  0  0  0  0  0  0  0  0
    7.2533  -14.2276   20.4129 C   0  0  0  0  0  0  0  0  0  0  0  0
    8.4037  -13.7296   20.9769 C   0  0  0  0  0  0  0  0  0  0  0  0
    8.7693  -14.0502   22.3458 C   0  0  0  0  0  0  0  0  0  0  0  0
    9.7851  -15.1331   22.5468 C   0  0  2  0  0  0  0  0  0  0  0  0
    9.1682  -16.3911   22.0410 N   0  0  0  0  0  0  0  0  0  0  0  0
   10.1761  -15.4138   23.9252 C   0  0  0  0  0  0  0  0  0  0  0  0
   10.9335  -14.5966   24.5645 O   0  0  0  0  0  0  0  0  0  0  0  0
    9.1940  -12.9103   20.1648 C   0  0  0  0  0  0  0  0  0  0  0  0
    8.8368  -12.6172   18.8635 C   0  0  0  0  0  0  0  0  0  0  0  0
    9.7948  -16.5505   24.7014 N   0  0  0  0  0  0  0  0  0  0  0  0
   10.2319  -16.7200   26.0721 C   0  0  1  0  0  0  0  0  0  0  0  0
    9.6252  -15.5895   26.8846 C   0  0  0  0  0  0  0  0  0  0  0  0
    8.1847  -15.4144   26.5949 C   0  0  0  0  0  0  0  0  0  0  0  0
    7.2997  -16.3367   26.1046 C   0  0  0  0  0  0  0  0  0  0  0  0
    6.0951  -15.7754   25.9858 N   0  0  0  0  0  0  0  0  0  0  0  0
    6.1731  -14.4976   26.3902 C   0  0  0  0  0  0  0  0  0  0  0  0
    5.1955  -13.4919   26.4600 C   0  0  0  0  0  0  0  0  0  0  0  0
    5.5058  -12.2317   26.9151 C   0  0  0  0  0  0  0  0  0  0  0  0
    6.8035  -11.9963   27.2967 C   0  0  0  0  0  0  0  0  0  0  0  0
    7.7654  -12.9777   27.2305 C   0  0  0  0  0  0  0  0  0  0  0  0
    7.4567  -14.2625   26.7685 C   0  0  0  0  0  0  0  0  0  0  0  0
    9.9902  -18.0337   26.6472 C   0  0  0  0  0  0  0  0  0  0  0  0
   10.3468  -18.3894   27.7996 O   0  0  0  0  0  0  0  0  0  0  0  0
    9.3217  -19.0024   25.9152 O   0  0  0  0  0  0  0  0  0  0  0  0
  2  3  1  6
  2  1  1  0
  4  2  1  0
  5  4  1  0
  5  6  1  1
  7  8  2  0
  7  5  1  0
  9 10  1  0
 10 11  2  0
 11 12  1  0
 13 12  2  0
 13 14  1  0
 15 14  1  1
 15 16  1  0
 16  7  1  0
 17 15  1  0
 17 18  2  0
 19 13  1  0
 20 10  1  0
 20 19  2  0
 21 17  1  0
 22 21  1  0
 22 23  1  1
 24 23  1  0
 24 25  2  0
 26 25  1  0
 27 26  1  0
 28 27  2  0
 29 28  1  0
 30 29  2  0
 30 31  1  0
 31 32  2  0
 32 27  1  0
 32 24  1  0
 33 22  1  0
 34 33  2  0
 35 33  1  0
M  END
$$$$
