LYW.pdb
     RDKit          3D

 35 37  0  0  1  0  0  0  0  0999 V2000
    6.9207  -12.4054   19.9380 C   0  0  0  0  0  0  0  0  0  0  0  0
    7.6878  -13.6316   19.4982 C   0  0  1  0  0  0  0  0  0  0  0  0
    9.0670  -13.2328   19.0076 C   0  0  0  0  0  0  0  0  0  0  0  0
    7.7838  -14.6885   20.5686 C   0  0  0  0  0  0  0  0  0  0  0  0
    8.6638  -15.8021   20.0924 C   0  0  2  0  0  0  0  0  0  0  0  0
    8.0096  -16.6448   19.1456 N   0  0  0  0  0  0  0  0  0  0  0  0
    9.2373  -16.6057   21.1836 C   0  0  0  0  0  0  0  0  0  0  0  0
    8.5239  -17.5013   21.7001 O   0  0  0  0  0  0  0  0  0  0  0  0
   15.2204  -20.9500   26.1144 O   0  0  0  0  0  0  0  0  0  0  0  0
   14.5645  -20.0528   25.2668 C   0  0  0  0  0  0  0  0  0  0  0  0
   13.5842  -20.5039   24.4317 C   0  0  0  0  0  0  0  0  0  0  0  0
   12.9249  -19.6203   23.5844 C   0  0  0  0  0  0  0  0  0  0  0  0
   13.2260  -18.2795   23.5514 C   0  0  0  0  0  0  0  0  0  0  0  0
   12.5216  -17.3727   22.6615 C   0  0  0  0  0  0  0  0  0  0  0  0
   11.0359  -17.2694   22.8261 C   0  0  2  0  0  0  0  0  0  0  0  0
   10.5414  -16.4384   21.6931 N   0  0  0  0  0  0  0  0  0  0  0  0
   10.5575  -16.6081   24.0366 C   0  0  0  0  0  0  0  0  0  0  0  0
   10.8885  -15.3922   24.2863 O   0  0  0  0  0  0  0  0  0  0  0  0
   14.2342  -17.8439   24.4169 C   0  0  0  0  0  0  0  0  0  0  0  0
   14.8929  -18.7161   25.2609 C   0  0  0  0  0  0  0  0  0  0  0  0
    9.7116  -17.1766   25.0372 N   0  0  0  0  0  0  0  0  0  0  0  0
    9.7836  -16.7617   26.4233 C   0  0  1  0  0  0  0  0  0  0  0  0
    8.3597  -16.6657   26.9424 C   0  0  0  0  0  0  0  0  0  0  0  0
    7.5316  -15.7604   26.1152 C   0  0  0  0  0  0  0  0  0  0  0  0
    6.5850  -16.0912   25.1831 C   0  0  0  0  0  0  0  0  0  0  0  0
    6.0700  -14.9771   24.6599 N   0  0  0  0  0  0  0  0  0  0  0  0
    6.6628  -13.9176   25.2329 C   0  0  0  0  0  0  0  0  0  0  0  0
    6.4790  -12.5396   25.0342 C   0  0  0  0  0  0  0  0  0  0  0  0
    7.2097  -11.6169   25.7456 C   0  0  0  0  0  0  0  0  0  0  0  0
    8.1222  -12.0937   26.6540 C   0  0  0  0  0  0  0  0  0  0  0  0
    8.3065  -13.4424   26.8529 C   0  0  0  0  0  0  0  0  0  0  0  0
    7.5664  -14.3872   26.1324 C   0  0  0  0  0  0  0  0  0  0  0  0
   10.6506  -17.5639   27.2716 C   0  0  0  0  0  0  0  0  0  0  0  0
   10.9661  -17.2738   28.4539 O   0  0  0  0  0  0  0  0  0  0  0  0
   11.1960  -18.7445   26.7921 O   0  0  0  0  0  0  0  0  0  0  0  0
  2  3  1  1
  2  1  1  0
  4  2  1  0
  5  4  1  0
  5  6  1  6
  7  8  2  0
  7  5  1  0
  9 10  1  0
 10 11  2  0
 11 12  1  0
 13 12  2  0
 13 14  1  0
 15 14  1  1
 15 16  1  0
 16  7  1  0
 17 15  1  0
 17 18  2  0
 19 13  1  0
 20 10  1  0
 20 19  2  0
 21 17  1  0
 22 21  1  0
 22 23  1  1
 24 23  1  0
 24 25  2  0
 26 25  1  0
 27 26  1  0
 28 27  2  0
 29 28  1  0
 30 29  2  0
 30 31  1  0
 31 32  2  0
 32 27  1  0
 32 24  1  0
 33 22  1  0
 34 33  2  0
 35 33  1  0
M  END
$$$$
