KFN.pdb
     RDKit          3D

 29 29  0  0  1  0  0  0  0  0999 V2000
   12.9609  -10.0538  -12.2119 N   0  0  0  0  0  0  0  0  0  0  0  0
   14.3725   -9.7429  -12.2851 C   0  0  1  0  0  0  0  0  0  0  0  0
   14.8185   -9.6545  -13.7266 C   0  0  0  0  0  0  0  0  0  0  0  0
   15.4877  -10.9208  -14.1860 C   0  0  0  0  0  0  0  0  0  0  0  0
   14.4948  -11.8240  -14.8700 C   0  0  0  0  0  0  0  0  0  0  0  0
   15.1912  -13.1125  -15.3322 C   0  0  0  0  0  0  0  0  0  0  0  0
   14.1674  -13.9660  -15.8767 N   0  0  0  0  0  0  0  0  0  0  0  0
   14.6427   -8.3940  -11.6710 C   0  0  0  0  0  0  0  0  0  0  0  0
   13.8226   -7.4379  -11.8058 O   0  0  0  0  0  0  0  0  0  0  0  0
   15.8165   -8.1257  -10.9174 N   0  0  0  0  0  0  0  0  0  0  0  0
   16.0226   -6.9218  -10.1684 C   0  0  1  0  0  0  0  0  0  0  0  0
   15.9781   -7.0955   -8.6845 C   0  0  0  0  0  0  0  0  0  0  0  0
   14.6575   -7.4365   -8.1528 C   0  0  0  0  0  0  0  0  0  0  0  0
   14.1777   -8.7325   -8.1193 C   0  0  0  0  0  0  0  0  0  0  0  0
   12.9242   -9.0347   -7.6133 C   0  0  0  0  0  0  0  0  0  0  0  0
   12.0976   -8.0491   -7.1189 C   0  0  0  0  0  0  0  0  0  0  0  0
   12.5663   -6.7524   -7.1474 C   0  0  0  0  0  0  0  0  0  0  0  0
   13.8277   -6.4534   -7.6572 C   0  0  0  0  0  0  0  0  0  0  0  0
   17.2604   -6.2401  -10.6485 C   0  0  0  0  0  0  0  0  0  0  0  0
   17.5810   -5.1254  -10.1713 O   0  0  0  0  0  0  0  0  0  0  0  0
   20.4935   -6.9747   -9.9953 N   0  0  0  0  0  0  0  0  0  0  0  0
   20.9564   -7.5357  -11.2536 C   0  0  0  0  0  0  0  0  0  0  0  0
   21.8263   -8.4352  -11.1669 O   0  0  0  0  0  0  0  0  0  0  0  0
   20.3704   -7.0037  -12.4939 C   0  0  0  0  0  0  0  0  0  0  0  0
   19.2519   -6.0748  -12.2238 C   0  0  2  0  0  0  0  0  0  0  0  0
   18.1001   -6.8101  -11.6361 N   0  0  0  0  0  0  0  0  0  0  0  0
   18.7703   -5.3597  -13.4365 C   0  0  0  0  0  0  0  0  0  0  0  0
   19.2104   -5.7684  -14.5674 O   0  0  0  0  0  0  0  0  0  0  0  0
   17.8989   -4.3065  -13.4403 O   0  0  0  0  0  0  0  0  0  0  0  0
  2  1  1  6
  2  3  1  0
  3  4  1  0
  4  5  1  0
  6  5  1  0
  7  6  1  0
  8  9  2  0
  8  2  1  0
 10  8  1  0
 11 10  1  0
 11 12  1  1
 13 14  2  0
 13 12  1  0
 15 14  1  0
 16 15  2  0
 17 16  1  0
 17 18  2  0
 18 13  1  0
 19 26  1  0
 19 11  1  0
 20 19  2  0
 21 22  1  0
 22 23  2  0
 22 24  1  0
 25 24  1  6
 25 26  1  0
 25 27  1  0
 27 29  1  0
 28 27  2  0
M  END
$$$$
