KFN.pdb
     RDKit          3D

 29 29  0  0  1  0  0  0  0  0999 V2000
   26.9581  -21.1281  -16.2008 N   0  0  0  0  0  0  0  0  0  0  0  0
   25.5507  -21.4176  -16.0282 C   0  0  1  0  0  0  0  0  0  0  0  0
   25.1693  -22.6592  -16.8013 C   0  0  0  0  0  0  0  0  0  0  0  0
   25.2591  -22.4451  -18.2874 C   0  0  0  0  0  0  0  0  0  0  0  0
   25.6105  -21.0126  -18.5938 C   0  0  0  0  0  0  0  0  0  0  0  0
   25.3271  -20.7089  -20.0724 C   0  0  0  0  0  0  0  0  0  0  0  0
   26.4450  -21.2188  -20.8233 N   0  0  0  0  0  0  0  0  0  0  0  0
   25.2507  -21.7070  -14.5805 C   0  0  0  0  0  0  0  0  0  0  0  0
   24.2361  -22.3880  -14.2463 O   0  0  0  0  0  0  0  0  0  0  0  0
   26.0791  -21.2377  -13.5263 N   0  0  0  0  0  0  0  0  0  0  0  0
   25.6686  -21.1883  -12.1545 C   0  0  1  0  0  0  0  0  0  0  0  0
   26.7551  -20.8340  -11.1911 C   0  0  0  0  0  0  0  0  0  0  0  0
   26.2960  -20.5843   -9.8237 C   0  0  0  0  0  0  0  0  0  0  0  0
   26.6526  -19.4549   -9.1107 C   0  0  0  0  0  0  0  0  0  0  0  0
   26.2087  -19.2374   -7.8167 C   0  0  0  0  0  0  0  0  0  0  0  0
   25.3876  -20.1442   -7.1820 C   0  0  0  0  0  0  0  0  0  0  0  0
   25.0256  -21.2745   -7.8842 C   0  0  0  0  0  0  0  0  0  0  0  0
   25.4745  -21.4888   -9.1853 C   0  0  0  0  0  0  0  0  0  0  0  0
   24.4576  -20.3256  -12.0258 C   0  0  0  0  0  0  0  0  0  0  0  0
   24.4574  -19.1760  -12.5273 O   0  0  0  0  0  0  0  0  0  0  0  0
   20.4135  -17.4359  -11.9014 N   0  0  0  0  0  0  0  0  0  0  0  0
   20.6721  -18.5175  -12.8371 C   0  0  0  0  0  0  0  0  0  0  0  0
   19.7764  -18.7331  -13.6883 O   0  0  0  0  0  0  0  0  0  0  0  0
   21.9417  -19.2484  -12.7005 C   0  0  0  0  0  0  0  0  0  0  0  0
   21.9967  -20.0333  -11.4484 C   0  0  2  0  0  0  0  0  0  0  0  0
   23.2911  -20.7597  -11.3505 N   0  0  0  0  0  0  0  0  0  0  0  0
   20.8994  -21.0307  -11.3262 C   0  0  0  0  0  0  0  0  0  0  0  0
   19.7169  -20.5764  -11.1391 O   0  0  0  0  0  0  0  0  0  0  0  0
   21.0515  -22.3873  -11.3984 O   0  0  0  0  0  0  0  0  0  0  0  0
  2  1  1  1
  2  3  1  0
  3  4  1  0
  4  5  1  0
  6  5  1  0
  7  6  1  0
  8  9  2  0
  8  2  1  0
 10  8  1  0
 11 10  1  0
 11 12  1  1
 13 14  2  0
 13 12  1  0
 15 14  1  0
 16 15  2  0
 17 16  1  0
 17 18  2  0
 18 13  1  0
 19 26  1  0
 19 11  1  0
 20 19  2  0
 21 22  1  0
 22 23  2  0
 22 24  1  0
 25 24  1  6
 25 26  1  0
 25 27  1  0
 27 29  1  0
 28 27  2  0
M  END
$$$$
