KFN.pdb
     RDKit          3D

 29 29  0  0  1  0  0  0  0  0999 V2000
   29.0087  -21.9333  -16.7880 N   0  0  0  0  0  0  0  0  0  0  0  0
   27.9659  -20.9419  -16.6326 C   0  0  1  0  0  0  0  0  0  0  0  0
   26.9878  -21.0212  -17.7822 C   0  0  0  0  0  0  0  0  0  0  0  0
   27.1270  -19.8533  -18.7197 C   0  0  0  0  0  0  0  0  0  0  0  0
   26.5680  -18.6032  -18.0919 C   0  0  0  0  0  0  0  0  0  0  0  0
   25.8424  -17.7637  -19.1538 C   0  0  0  0  0  0  0  0  0  0  0  0
   26.8053  -16.8274  -19.6729 N   0  0  0  0  0  0  0  0  0  0  0  0
   27.1742  -21.2086  -15.3790 C   0  0  0  0  0  0  0  0  0  0  0  0
   26.8155  -22.3836  -15.0697 O   0  0  0  0  0  0  0  0  0  0  0  0
   26.7924  -20.1701  -14.4882 N   0  0  0  0  0  0  0  0  0  0  0  0
   26.1055  -20.3960  -13.2513 C   0  0  1  0  0  0  0  0  0  0  0  0
   26.6774  -19.6669  -12.0785 C   0  0  0  0  0  0  0  0  0  0  0  0
   27.7708  -20.3674  -11.4028 C   0  0  0  0  0  0  0  0  0  0  0  0
   28.9862  -20.6183  -12.0117 C   0  0  0  0  0  0  0  0  0  0  0  0
   30.0084  -21.2843  -11.3557 C   0  0  0  0  0  0  0  0  0  0  0  0
   29.8550  -21.7276  -10.0598 C   0  0  0  0  0  0  0  0  0  0  0  0
   28.6463  -21.4826   -9.4427 C   0  0  0  0  0  0  0  0  0  0  0  0
   27.6213  -20.8124  -10.1065 C   0  0  0  0  0  0  0  0  0  0  0  0
   24.6440  -20.1602  -13.4408 C   0  0  0  0  0  0  0  0  0  0  0  0
   24.2548  -19.1579  -14.0864 O   0  0  0  0  0  0  0  0  0  0  0  0
   19.8815  -21.9366  -15.6797 N   0  0  0  0  0  0  0  0  0  0  0  0
   20.2740  -21.8905  -14.2811 C   0  0  0  0  0  0  0  0  0  0  0  0
   19.3430  -21.7391  -13.4543 O   0  0  0  0  0  0  0  0  0  0  0  0
   21.7058  -22.0234  -13.9700 C   0  0  0  0  0  0  0  0  0  0  0  0
   22.2132  -20.8710  -13.1945 C   0  0  2  0  0  0  0  0  0  0  0  0
   23.6645  -21.0363  -12.9133 N   0  0  0  0  0  0  0  0  0  0  0  0
   21.5126  -20.6765  -11.8964 C   0  0  0  0  0  0  0  0  0  0  0  0
   21.7227  -21.5500  -10.9840 O   0  0  0  0  0  0  0  0  0  0  0  0
   20.6670  -19.6441  -11.6005 O   0  0  0  0  0  0  0  0  0  0  0  0
  2  1  1  6
  2  3  1  0
  3  4  1  0
  4  5  1  0
  6  5  1  0
  7  6  1  0
  8  9  2  0
  8  2  1  0
 10  8  1  0
 11 10  1  0
 11 12  1  1
 13 14  2  0
 13 12  1  0
 15 14  1  0
 16 15  2  0
 17 16  1  0
 17 18  2  0
 18 13  1  0
 19 26  1  0
 19 11  1  0
 20 19  2  0
 21 22  1  0
 22 23  2  0
 22 24  1  0
 25 24  1  1
 25 26  1  0
 25 27  1  0
 27 29  1  0
 28 27  2  0
M  END
$$$$
