KFN.pdb
     RDKit          3D

 29 29  0  0  1  0  0  0  0  0999 V2000
   28.6197  -22.0617  -16.7860 N   0  0  0  0  0  0  0  0  0  0  0  0
   27.4209  -21.2530  -16.7285 C   0  0  1  0  0  0  0  0  0  0  0  0
   26.4466  -21.6778  -17.8032 C   0  0  0  0  0  0  0  0  0  0  0  0
   27.1161  -21.8239  -19.1421 C   0  0  0  0  0  0  0  0  0  0  0  0
   27.3066  -23.2793  -19.4808 C   0  0  0  0  0  0  0  0  0  0  0  0
   27.8725  -23.4163  -20.9021 C   0  0  0  0  0  0  0  0  0  0  0  0
   28.0791  -24.8224  -21.1335 N   0  0  0  0  0  0  0  0  0  0  0  0
   26.7181  -21.4539  -15.4113 C   0  0  0  0  0  0  0  0  0  0  0  0
   25.6088  -22.0625  -15.3480 O   0  0  0  0  0  0  0  0  0  0  0  0
   27.2549  -20.9778  -14.1853 N   0  0  0  0  0  0  0  0  0  0  0  0
   26.5485  -21.0173  -12.9394 C   0  0  1  0  0  0  0  0  0  0  0  0
   27.3506  -20.5864  -11.7541 C   0  0  0  0  0  0  0  0  0  0  0  0
   26.6155  -20.5952  -10.4882 C   0  0  0  0  0  0  0  0  0  0  0  0
   26.4097  -21.7470   -9.7520 C   0  0  0  0  0  0  0  0  0  0  0  0
   25.7099  -21.7348   -8.5567 C   0  0  0  0  0  0  0  0  0  0  0  0
   25.1860  -20.5659   -8.0483 C   0  0  0  0  0  0  0  0  0  0  0  0
   25.3855  -19.4107   -8.7748 C   0  0  0  0  0  0  0  0  0  0  0  0
   26.0900  -19.4280   -9.9763 C   0  0  0  0  0  0  0  0  0  0  0  0
   25.2535  -20.2880  -13.0757 C   0  0  0  0  0  0  0  0  0  0  0  0
   25.2481  -19.1020  -13.4836 O   0  0  0  0  0  0  0  0  0  0  0  0
   21.0309  -17.7863  -14.4354 N   0  0  0  0  0  0  0  0  0  0  0  0
   21.1651  -19.2289  -14.5499 C   0  0  0  0  0  0  0  0  0  0  0  0
   20.1163  -19.8575  -14.8296 O   0  0  0  0  0  0  0  0  0  0  0  0
   22.4991  -19.8092  -14.3298 C   0  0  0  0  0  0  0  0  0  0  0  0
   22.7165  -20.1762  -12.9139 C   0  0  2  0  0  0  0  0  0  0  0  0
   24.0120  -20.8907  -12.7585 N   0  0  0  0  0  0  0  0  0  0  0  0
   21.6437  -21.0428  -12.3556 C   0  0  0  0  0  0  0  0  0  0  0  0
   20.4488  -20.5834  -12.3851 O   0  0  0  0  0  0  0  0  0  0  0  0
   21.8302  -22.2852  -11.8167 O   0  0  0  0  0  0  0  0  0  0  0  0
  2  1  1  1
  2  3  1  0
  3  4  1  0
  4  5  1  0
  6  5  1  0
  7  6  1  0
  8  9  2  0
  8  2  1  0
 10  8  1  0
 11 10  1  0
 11 12  1  1
 13 14  2  0
 13 12  1  0
 15 14  1  0
 16 15  2  0
 17 16  1  0
 17 18  2  0
 18 13  1  0
 19 26  1  0
 19 11  1  0
 20 19  2  0
 21 22  1  0
 22 23  2  0
 22 24  1  0
 25 24  1  6
 25 26  1  0
 25 27  1  0
 27 29  1  0
 28 27  2  0
M  END
$$$$
