KFN.pdb
     RDKit          3D

 29 29  0  0  1  0  0  0  0  0999 V2000
   27.3062  -22.6319  -17.4570 N   0  0  0  0  0  0  0  0  0  0  0  0
   27.2559  -21.3713  -16.7479 C   0  0  1  0  0  0  0  0  0  0  0  0
   26.3342  -20.4048  -17.4559 C   0  0  0  0  0  0  0  0  0  0  0  0
   26.9398  -19.8820  -18.7295 C   0  0  0  0  0  0  0  0  0  0  0  0
   27.6819  -18.5966  -18.4722 C   0  0  0  0  0  0  0  0  0  0  0  0
   28.2577  -18.0521  -19.7878 C   0  0  0  0  0  0  0  0  0  0  0  0
   29.0772  -16.9187  -19.4455 N   0  0  0  0  0  0  0  0  0  0  0  0
   26.6865  -21.5709  -15.3675 C   0  0  0  0  0  0  0  0  0  0  0  0
   25.7006  -22.3420  -15.1720 O   0  0  0  0  0  0  0  0  0  0  0  0
   27.2181  -20.9136  -14.2259 N   0  0  0  0  0  0  0  0  0  0  0  0
   26.6409  -21.0010  -12.9175 C   0  0  1  0  0  0  0  0  0  0  0  0
   27.4980  -20.4570  -11.8205 C   0  0  0  0  0  0  0  0  0  0  0  0
   26.8360  -20.3745  -10.5175 C   0  0  0  0  0  0  0  0  0  0  0  0
   27.0014  -21.3317   -9.5338 C   0  0  0  0  0  0  0  0  0  0  0  0
   26.3649  -21.2364   -8.3073 C   0  0  0  0  0  0  0  0  0  0  0  0
   25.5345  -20.1762   -8.0146 C   0  0  0  0  0  0  0  0  0  0  0  0
   25.3623  -19.2154   -8.9888 C   0  0  0  0  0  0  0  0  0  0  0  0
   26.0046  -19.3155  -10.2208 C   0  0  0  0  0  0  0  0  0  0  0  0
   25.2657  -20.4214  -12.9382 C   0  0  0  0  0  0  0  0  0  0  0  0
   25.0891  -19.2551  -13.3644 O   0  0  0  0  0  0  0  0  0  0  0  0
   20.1573  -19.9697  -13.0439 N   0  0  0  0  0  0  0  0  0  0  0  0
   20.6339  -21.0860  -13.8432 C   0  0  0  0  0  0  0  0  0  0  0  0
   19.8017  -21.5888  -14.6357 O   0  0  0  0  0  0  0  0  0  0  0  0
   22.0276  -21.5165  -13.6509 C   0  0  0  0  0  0  0  0  0  0  0  0
   22.7446  -20.6561  -12.6853 C   0  0  2  0  0  0  0  0  0  0  0  0
   24.1352  -21.1467  -12.4896 N   0  0  0  0  0  0  0  0  0  0  0  0
   22.0887  -20.5891  -11.3514 C   0  0  0  0  0  0  0  0  0  0  0  0
   20.9133  -20.0833  -11.3046 O   0  0  0  0  0  0  0  0  0  0  0  0
   22.6375  -21.0232  -10.1771 O   0  0  0  0  0  0  0  0  0  0  0  0
  2  1  1  6
  2  3  1  0
  3  4  1  0
  4  5  1  0
  6  5  1  0
  7  6  1  0
  8  9  2  0
  8  2  1  0
 10  8  1  0
 11 10  1  0
 11 12  1  1
 13 14  2  0
 13 12  1  0
 15 14  1  0
 16 15  2  0
 17 16  1  0
 17 18  2  0
 18 13  1  0
 19 26  1  0
 19 11  1  0
 20 19  2  0
 21 22  1  0
 22 23  2  0
 22 24  1  0
 25 24  1  6
 25 26  1  0
 25 27  1  0
 27 29  1  0
 28 27  2  0
M  END
$$$$
