KFN.pdb
     RDKit          3D

 29 29  0  0  1  0  0  0  0  0999 V2000
   27.6604  -20.0003  -17.3590 N   0  0  0  0  0  0  0  0  0  0  0  0
   26.8105  -21.1142  -16.9965 C   0  0  1  0  0  0  0  0  0  0  0  0
   27.2033  -22.3510  -17.7716 C   0  0  0  0  0  0  0  0  0  0  0  0
   27.6091  -22.0241  -19.1825 C   0  0  0  0  0  0  0  0  0  0  0  0
   28.0700  -23.2658  -19.9002 C   0  0  0  0  0  0  0  0  0  0  0  0
   28.4320  -22.9265  -21.3537 C   0  0  0  0  0  0  0  0  0  0  0  0
   29.0118  -24.1139  -21.9257 N   0  0  0  0  0  0  0  0  0  0  0  0
   26.9843  -21.4509  -15.5384 C   0  0  0  0  0  0  0  0  0  0  0  0
   27.2785  -22.6264  -15.1692 O   0  0  0  0  0  0  0  0  0  0  0  0
   26.8296  -20.4803  -14.5127 N   0  0  0  0  0  0  0  0  0  0  0  0
   26.8075  -20.7968  -13.1155 C   0  0  1  0  0  0  0  0  0  0  0  0
   27.4652  -19.7828  -12.2361 C   0  0  0  0  0  0  0  0  0  0  0  0
   27.3310  -20.0448  -10.8022 C   0  0  0  0  0  0  0  0  0  0  0  0
   28.2620  -20.7735  -10.0858 C   0  0  0  0  0  0  0  0  0  0  0  0
   28.1162  -21.0119   -8.7291 C   0  0  0  0  0  0  0  0  0  0  0  0
   27.0295  -20.5293   -8.0324 C   0  0  0  0  0  0  0  0  0  0  0  0
   26.0945  -19.8009   -8.7374 C   0  0  0  0  0  0  0  0  0  0  0  0
   26.2454  -19.5637  -10.1017 C   0  0  0  0  0  0  0  0  0  0  0  0
   25.4125  -21.1264  -12.6998 C   0  0  0  0  0  0  0  0  0  0  0  0
   25.1840  -21.4857  -11.5200 O   0  0  0  0  0  0  0  0  0  0  0  0
   20.0934  -19.7613  -12.3307 N   0  0  0  0  0  0  0  0  0  0  0  0
   21.1029  -20.6058  -11.7141 C   0  0  0  0  0  0  0  0  0  0  0  0
   20.6825  -21.4483  -10.8854 O   0  0  0  0  0  0  0  0  0  0  0  0
   22.5034  -20.3965  -12.1132 C   0  0  0  0  0  0  0  0  0  0  0  0
   22.9218  -21.3339  -13.1777 C   0  0  2  0  0  0  0  0  0  0  0  0
   24.3200  -21.0482  -13.5974 N   0  0  0  0  0  0  0  0  0  0  0  0
   22.0581  -21.2787  -14.3880 C   0  0  0  0  0  0  0  0  0  0  0  0
   22.4272  -20.4966  -15.3323 O   0  0  0  0  0  0  0  0  0  0  0  0
   20.9077  -21.9936  -14.5723 O   0  0  0  0  0  0  0  0  0  0  0  0
  2  1  1  6
  2  3  1  0
  3  4  1  0
  4  5  1  0
  6  5  1  0
  7  6  1  0
  8  9  2  0
  8  2  1  0
 10  8  1  0
 11 10  1  0
 11 12  1  1
 13 14  2  0
 13 12  1  0
 15 14  1  0
 16 15  2  0
 17 16  1  0
 17 18  2  0
 18 13  1  0
 19 26  1  0
 19 11  1  0
 20 19  2  0
 21 22  1  0
 22 23  2  0
 22 24  1  0
 25 24  1  1
 25 26  1  0
 25 27  1  0
 27 29  1  0
 28 27  2  0
M  END
$$$$
