KFN.pdb
     RDKit          3D

 29 29  0  0  1  0  0  0  0  0999 V2000
   31.0622  -13.5253  -21.6408 N   0  0  0  0  0  0  0  0  0  0  0  0
   30.4385  -12.2297  -21.8053 C   0  0  1  0  0  0  0  0  0  0  0  0
   29.2066  -12.3443  -22.6736 C   0  0  0  0  0  0  0  0  0  0  0  0
   29.5471  -12.7544  -24.0801 C   0  0  0  0  0  0  0  0  0  0  0  0
   28.3038  -12.8117  -24.9287 C   0  0  0  0  0  0  0  0  0  0  0  0
   28.6677  -13.2211  -26.3636 C   0  0  0  0  0  0  0  0  0  0  0  0
   27.4376  -13.2531  -27.1114 N   0  0  0  0  0  0  0  0  0  0  0  0
   29.9744  -11.7006  -20.4734 C   0  0  0  0  0  0  0  0  0  0  0  0
   29.5797  -12.4845  -19.5598 O   0  0  0  0  0  0  0  0  0  0  0  0
   29.9549  -10.3120  -20.1745 N   0  0  0  0  0  0  0  0  0  0  0  0
   29.6575   -9.7822  -18.8769 C   0  0  1  0  0  0  0  0  0  0  0  0
   30.7718   -9.0087  -18.2491 C   0  0  0  0  0  0  0  0  0  0  0  0
   32.0290   -9.7481  -18.1247 C   0  0  0  0  0  0  0  0  0  0  0  0
   32.1451  -10.9029  -17.3736 C   0  0  0  0  0  0  0  0  0  0  0  0
   33.3445  -11.5876  -17.2671 C   0  0  0  0  0  0  0  0  0  0  0  0
   34.4796  -11.1431  -17.9099 C   0  0  0  0  0  0  0  0  0  0  0  0
   34.3750   -9.9920  -18.6620 C   0  0  0  0  0  0  0  0  0  0  0  0
   33.1667   -9.3067  -18.7661 C   0  0  0  0  0  0  0  0  0  0  0  0
   28.3690   -9.0307  -18.9271 C   0  0  0  0  0  0  0  0  0  0  0  0
   27.9577   -8.5747  -20.0207 O   0  0  0  0  0  0  0  0  0  0  0  0
   23.6145   -7.5140  -18.1248 N   0  0  0  0  0  0  0  0  0  0  0  0
   23.9469   -8.7982  -18.7187 C   0  0  0  0  0  0  0  0  0  0  0  0
   22.9983   -9.4145  -19.2606 O   0  0  0  0  0  0  0  0  0  0  0  0
   25.3445   -9.2493  -18.6298 C   0  0  0  0  0  0  0  0  0  0  0  0
   26.1797   -8.3132  -17.8469 C   0  0  2  0  0  0  0  0  0  0  0  0
   27.5802   -8.8091  -17.7722 N   0  0  0  0  0  0  0  0  0  0  0  0
   25.6911   -8.1046  -16.4570 C   0  0  0  0  0  0  0  0  0  0  0  0
   26.1741   -8.8671  -15.5488 O   0  0  0  0  0  0  0  0  0  0  0  0
   24.7726   -7.1678  -16.0734 O   0  0  0  0  0  0  0  0  0  0  0  0
  2  1  1  1
  2  3  1  0
  3  4  1  0
  4  5  1  0
  6  5  1  0
  7  6  1  0
  8  9  2  0
  8  2  1  0
 10  8  1  0
 11 10  1  0
 11 12  1  6
 13 14  2  0
 13 12  1  0
 15 14  1  0
 16 15  2  0
 17 16  1  0
 17 18  2  0
 18 13  1  0
 19 26  1  0
 19 11  1  0
 20 19  2  0
 21 22  1  0
 22 23  2  0
 22 24  1  0
 25 24  1  1
 25 26  1  0
 25 27  1  0
 27 29  1  0
 28 27  2  0
M  END
$$$$
