FDA.pdb
     RDKit          3D

 25 25  0  0  1  0  0  0  0  0999 V2000
    6.6344  -17.0709   22.4170 N   0  0  0  0  0  0  0  0  0  0  0  0
    7.2361  -16.0142   23.2231 C   0  0  1  0  0  0  0  0  0  0  0  0
    6.2184  -15.7577   24.3523 C   0  0  0  0  0  0  0  0  0  0  0  0
    6.7362  -14.6370   25.1590 C   0  0  0  0  0  0  0  0  0  0  0  0
    7.0090  -13.3807   24.6358 C   0  0  0  0  0  0  0  0  0  0  0  0
    7.5012  -12.3583   25.4076 C   0  0  0  0  0  0  0  0  0  0  0  0
    7.7403  -12.5632   26.7513 C   0  0  0  0  0  0  0  0  0  0  0  0
    7.4793  -13.7944   27.2874 C   0  0  0  0  0  0  0  0  0  0  0  0
    6.9807  -14.8377   26.5172 C   0  0  0  0  0  0  0  0  0  0  0  0
    8.4382  -16.5850   23.9061 C   0  0  0  0  0  0  0  0  0  0  0  0
    8.3637  -17.6393   24.6103 O   0  0  0  0  0  0  0  0  0  0  0  0
    9.6828  -15.9452   23.7696 N   0  0  0  0  0  0  0  0  0  0  0  0
   10.9333  -16.4050   24.3695 C   0  0  1  0  0  0  0  0  0  0  0  0
   12.0142  -15.9225   23.3675 C   0  0  0  0  0  0  0  0  0  0  0  0
   12.0052  -16.7369   22.1361 C   0  0  0  0  0  0  0  0  0  0  0  0
   12.3840  -17.9410   22.1978 O   0  0  0  0  0  0  0  0  0  0  0  0
   11.0914  -15.6762   25.6531 C   0  0  0  0  0  0  0  0  0  0  0  0
   11.5620  -14.4897   25.7096 O   0  0  0  0  0  0  0  0  0  0  0  0
   11.5866  -16.1689   20.9543 O   0  0  0  0  0  0  0  0  0  0  0  0
   10.4630  -14.4070   28.5618 C   0  0  0  0  0  0  0  0  0  0  0  0
   11.1302  -15.7212   28.1989 C   0  0  2  0  0  0  0  0  0  0  0  0
   10.7310  -16.2385   26.9264 N   0  0  0  0  0  0  0  0  0  0  0  0
   10.9195  -16.7457   29.2358 C   0  0  0  0  0  0  0  0  0  0  0  0
   11.2553  -16.5193   30.4172 O   0  0  0  0  0  0  0  0  0  0  0  0
   10.3539  -17.9523   28.9094 O   0  0  0  0  0  0  0  0  0  0  0  0
  2  1  1  6
  2 10  1  0
  3  2  1  0
  4  9  2  0
  4  3  1  0
  5  4  1  0
  6  7  1  0
  6  5  2  0
  7  8  2  0
  8  9  1  0
 10 12  1  0
 11 10  2  0
 12 13  1  0
 13 17  1  0
 13 14  1  6
 15 19  1  0
 15 14  1  0
 16 15  2  0
 17 22  1  0
 17 18  2  0
 21 20  1  1
 22 21  1  0
 23 21  1  0
 23 25  1  0
 24 23  2  0
M  END
$$$$
