FDA.pdb
     RDKit          3D

 25 25  0  0  1  0  0  0  0  0999 V2000
    6.0075  -17.5053   24.2102 N   0  0  0  0  0  0  0  0  0  0  0  0
    6.8769  -16.3715   24.5052 C   0  0  1  0  0  0  0  0  0  0  0  0
    6.4818  -15.9376   25.9308 C   0  0  0  0  0  0  0  0  0  0  0  0
    6.7059  -14.4829   26.0211 C   0  0  0  0  0  0  0  0  0  0  0  0
    7.9532  -13.9137   26.2374 C   0  0  0  0  0  0  0  0  0  0  0  0
    8.1317  -12.5561   26.3284 C   0  0  0  0  0  0  0  0  0  0  0  0
    7.0492  -11.7092   26.2035 C   0  0  0  0  0  0  0  0  0  0  0  0
    5.8104  -12.2491   25.9909 C   0  0  0  0  0  0  0  0  0  0  0  0
    5.6162  -13.6216   25.8965 C   0  0  0  0  0  0  0  0  0  0  0  0
    8.2762  -16.8854   24.6297 C   0  0  0  0  0  0  0  0  0  0  0  0
    8.5269  -18.0026   25.1789 O   0  0  0  0  0  0  0  0  0  0  0  0
    9.3437  -16.1193   24.1290 N   0  0  0  0  0  0  0  0  0  0  0  0
   10.7358  -16.5588   24.0673 C   0  0  1  0  0  0  0  0  0  0  0  0
   11.3554  -15.6462   22.9771 C   0  0  0  0  0  0  0  0  0  0  0  0
   12.7495  -16.0328   22.6832 C   0  0  0  0  0  0  0  0  0  0  0  0
   13.1652  -17.1609   23.0728 O   0  0  0  0  0  0  0  0  0  0  0  0
   11.3487  -16.2414   25.3816 C   0  0  0  0  0  0  0  0  0  0  0  0
   12.5725  -16.4990   25.6430 O   0  0  0  0  0  0  0  0  0  0  0  0
   13.5613  -15.1599   21.9949 O   0  0  0  0  0  0  0  0  0  0  0  0
   10.5269  -14.1409   28.4321 C   0  0  0  0  0  0  0  0  0  0  0  0
   11.1543  -15.3476   27.7582 C   0  0  2  0  0  0  0  0  0  0  0  0
   10.6239  -15.6229   26.4585 N   0  0  0  0  0  0  0  0  0  0  0  0
   11.0559  -16.5545   28.5967 C   0  0  0  0  0  0  0  0  0  0  0  0
   10.5091  -17.5845   28.1500 O   0  0  0  0  0  0  0  0  0  0  0  0
   11.5641  -16.5530   29.8711 O   0  0  0  0  0  0  0  0  0  0  0  0
  2  1  1  1
  2 10  1  0
  3  2  1  0
  4  9  2  0
  4  3  1  0
  5  4  1  0
  6  7  1  0
  6  5  2  0
  7  8  2  0
  8  9  1  0
 10 12  1  0
 11 10  2  0
 12 13  1  0
 13 17  1  0
 13 14  1  6
 15 19  1  0
 15 14  1  0
 16 15  2  0
 17 22  1  0
 17 18  2  0
 21 20  1  1
 22 21  1  0
 23 21  1  0
 23 25  1  0
 24 23  2  0
M  END
$$$$
