FDA.pdb
     RDKit          3D

 25 25  0  0  1  0  0  0  0  0999 V2000
    5.9790  -17.6047   24.2966 N   0  0  0  0  0  0  0  0  0  0  0  0
    6.8376  -16.4369   24.4618 C   0  0  1  0  0  0  0  0  0  0  0  0
    6.4454  -15.8555   25.8347 C   0  0  0  0  0  0  0  0  0  0  0  0
    6.5703  -14.3893   25.7385 C   0  0  0  0  0  0  0  0  0  0  0  0
    5.4807  -13.5327   25.6633 C   0  0  0  0  0  0  0  0  0  0  0  0
    5.6258  -12.1718   25.5632 C   0  0  0  0  0  0  0  0  0  0  0  0
    6.8879  -11.6140   25.5349 C   0  0  0  0  0  0  0  0  0  0  0  0
    7.9759  -12.4401   25.6069 C   0  0  0  0  0  0  0  0  0  0  0  0
    7.8427  -13.8192   25.7087 C   0  0  0  0  0  0  0  0  0  0  0  0
    8.2430  -16.9200   24.6319 C   0  0  0  0  0  0  0  0  0  0  0  0
    8.5017  -18.0181   25.2150 O   0  0  0  0  0  0  0  0  0  0  0  0
    9.3074  -16.1459   24.1371 N   0  0  0  0  0  0  0  0  0  0  0  0
   10.7062  -16.5668   24.1022 C   0  0  1  0  0  0  0  0  0  0  0  0
   11.3348  -15.6447   23.0252 C   0  0  0  0  0  0  0  0  0  0  0  0
   12.7537  -15.9806   22.7939 C   0  0  0  0  0  0  0  0  0  0  0  0
   13.0582  -17.1695   22.4926 O   0  0  0  0  0  0  0  0  0  0  0  0
   11.2890  -16.2430   25.4286 C   0  0  0  0  0  0  0  0  0  0  0  0
   12.5257  -16.4250   25.6925 O   0  0  0  0  0  0  0  0  0  0  0  0
   13.7082  -14.9959   22.9111 O   0  0  0  0  0  0  0  0  0  0  0  0
   10.2772  -14.2610   28.5068 C   0  0  0  0  0  0  0  0  0  0  0  0
   11.0332  -15.3776   27.8098 C   0  0  2  0  0  0  0  0  0  0  0  0
   10.5183  -15.7021   26.5154 N   0  0  0  0  0  0  0  0  0  0  0  0
   11.0937  -16.5953   28.6360 C   0  0  0  0  0  0  0  0  0  0  0  0
   11.5339  -16.5389   29.8033 O   0  0  0  0  0  0  0  0  0  0  0  0
   10.6670  -17.7962   28.1280 O   0  0  0  0  0  0  0  0  0  0  0  0
  2  1  1  1
  2 10  1  0
  3  2  1  0
  4  9  2  0
  4  3  1  0
  5  4  1  0
  6  7  1  0
  6  5  2  0
  7  8  2  0
  8  9  1  0
 10 12  1  0
 11 10  2  0
 12 13  1  0
 13 17  1  0
 13 14  1  6
 15 19  1  0
 15 14  1  0
 16 15  2  0
 17 22  1  0
 17 18  2  0
 21 20  1  1
 22 21  1  0
 23 21  1  0
 23 25  1  0
 24 23  2  0
M  END
$$$$
