FDA.pdb
     RDKit          3D

 25 25  0  0  1  0  0  0  0  0999 V2000
    5.7798  -17.2764   24.3091 N   0  0  0  0  0  0  0  0  0  0  0  0
    6.8083  -16.2700   24.5499 C   0  0  1  0  0  0  0  0  0  0  0  0
    6.6140  -15.8587   26.0229 C   0  0  0  0  0  0  0  0  0  0  0  0
    6.6797  -14.3864   26.0762 C   0  0  0  0  0  0  0  0  0  0  0  0
    7.8526  -13.6666   25.8955 C   0  0  0  0  0  0  0  0  0  0  0  0
    7.8872  -12.2963   25.9615 C   0  0  0  0  0  0  0  0  0  0  0  0
    6.7292  -11.5895   26.2145 C   0  0  0  0  0  0  0  0  0  0  0  0
    5.5619  -12.2792   26.3968 C   0  0  0  0  0  0  0  0  0  0  0  0
    5.5133  -13.6662   26.3323 C   0  0  0  0  0  0  0  0  0  0  0  0
    8.1383  -16.9533   24.5098 C   0  0  0  0  0  0  0  0  0  0  0  0
    8.3101  -18.1027   25.0218 O   0  0  0  0  0  0  0  0  0  0  0  0
    9.2281  -16.3144   23.8923 N   0  0  0  0  0  0  0  0  0  0  0  0
   10.6103  -16.7867   23.9316 C   0  0  1  0  0  0  0  0  0  0  0  0
   11.2425  -16.1614   22.6610 C   0  0  0  0  0  0  0  0  0  0  0  0
   12.6413  -16.6003   22.4867 C   0  0  0  0  0  0  0  0  0  0  0  0
   13.0103  -17.6872   23.0154 O   0  0  0  0  0  0  0  0  0  0  0  0
   11.2374  -16.1907   25.1379 C   0  0  0  0  0  0  0  0  0  0  0  0
   12.4429  -15.7674   25.1409 O   0  0  0  0  0  0  0  0  0  0  0  0
   13.5077  -15.8194   21.7559 O   0  0  0  0  0  0  0  0  0  0  0  0
   10.8567  -13.9304   27.6361 C   0  0  0  0  0  0  0  0  0  0  0  0
   11.0910  -15.4283   27.5632 C   0  0  2  0  0  0  0  0  0  0  0  0
   10.5472  -16.0407   26.3904 N   0  0  0  0  0  0  0  0  0  0  0  0
   10.5839  -16.1197   28.7608 C   0  0  0  0  0  0  0  0  0  0  0  0
   10.9385  -15.7443   29.8978 O   0  0  0  0  0  0  0  0  0  0  0  0
    9.7203  -17.1781   28.6332 O   0  0  0  0  0  0  0  0  0  0  0  0
  2  1  1  1
  2 10  1  0
  3  2  1  0
  4  9  2  0
  4  3  1  0
  5  4  1  0
  6  7  1  0
  6  5  2  0
  7  8  2  0
  8  9  1  0
 10 12  1  0
 11 10  2  0
 12 13  1  0
 13 17  1  0
 13 14  1  6
 15 19  1  0
 15 14  1  0
 16 15  2  0
 17 22  1  0
 17 18  2  0
 21 20  1  1
 22 21  1  0
 23 21  1  0
 23 25  1  0
 24 23  2  0
M  END
$$$$
