FDA.pdb
     RDKit          3D

 25 25  0  0  1  0  0  0  0  0999 V2000
    7.6289  -16.5089   20.7874 N   0  0  0  0  0  0  0  0  0  0  0  0
    7.9488  -15.6525   21.9244 C   0  0  1  0  0  0  0  0  0  0  0  0
    6.5841  -15.3250   22.5622 C   0  0  0  0  0  0  0  0  0  0  0  0
    6.8366  -14.3923   23.6763 C   0  0  0  0  0  0  0  0  0  0  0  0
    7.2175  -13.0700   23.4948 C   0  0  0  0  0  0  0  0  0  0  0  0
    7.4570  -12.2264   24.5503 C   0  0  0  0  0  0  0  0  0  0  0  0
    7.3205  -12.6865   25.8444 C   0  0  0  0  0  0  0  0  0  0  0  0
    6.9469  -13.9869   26.0461 C   0  0  0  0  0  0  0  0  0  0  0  0
    6.7012  -14.8510   24.9863 C   0  0  0  0  0  0  0  0  0  0  0  0
    8.6626  -16.4858   22.9411 C   0  0  0  0  0  0  0  0  0  0  0  0
    8.7337  -17.7491   22.8327 O   0  0  0  0  0  0  0  0  0  0  0  0
    9.2716  -15.8628   24.0448 N   0  0  0  0  0  0  0  0  0  0  0  0
   10.4489  -16.3663   24.7488 C   0  0  1  0  0  0  0  0  0  0  0  0
   11.5745  -16.2699   23.6862 C   0  0  0  0  0  0  0  0  0  0  0  0
   12.2888  -17.5541   23.5440 C   0  0  0  0  0  0  0  0  0  0  0  0
   11.7533  -18.4789   22.8694 O   0  0  0  0  0  0  0  0  0  0  0  0
   10.7320  -15.4161   25.8536 C   0  0  0  0  0  0  0  0  0  0  0  0
   10.3614  -14.1940   25.8133 O   0  0  0  0  0  0  0  0  0  0  0  0
   13.5159  -17.7142   24.1466 O   0  0  0  0  0  0  0  0  0  0  0  0
   10.0328  -14.3117   28.4434 C   0  0  0  0  0  0  0  0  0  0  0  0
   11.0498  -15.4368   28.3801 C   0  0  2  0  0  0  0  0  0  0  0  0
   11.4389  -15.7882   27.0492 N   0  0  0  0  0  0  0  0  0  0  0  0
   10.5800  -16.6386   29.0901 C   0  0  0  0  0  0  0  0  0  0  0  0
   10.0367  -16.5324   30.2095 O   0  0  0  0  0  0  0  0  0  0  0  0
   10.7368  -17.8793   28.5258 O   0  0  0  0  0  0  0  0  0  0  0  0
  2  1  1  6
  2 10  1  0
  3  2  1  0
  4  9  2  0
  4  3  1  0
  5  4  1  0
  6  7  1  0
  6  5  2  0
  7  8  2  0
  8  9  1  0
 10 12  1  0
 11 10  2  0
 12 13  1  0
 13 17  1  0
 13 14  1  6
 15 19  1  0
 15 14  1  0
 16 15  2  0
 17 22  1  0
 17 18  2  0
 21 20  1  6
 22 21  1  0
 23 21  1  0
 23 25  1  0
 24 23  2  0
M  END
$$$$
