FDA.pdb
     RDKit          3D

 25 25  0  0  1  0  0  0  0  0999 V2000
    6.3583  -17.1912   22.9085 N   0  0  0  0  0  0  0  0  0  0  0  0
    7.0659  -16.1019   23.5729 C   0  0  1  0  0  0  0  0  0  0  0  0
    6.2513  -15.8314   24.8534 C   0  0  0  0  0  0  0  0  0  0  0  0
    6.7684  -14.5825   25.4429 C   0  0  0  0  0  0  0  0  0  0  0  0
    7.0404  -13.4420   24.7001 C   0  0  0  0  0  0  0  0  0  0  0  0
    7.5320  -12.2960   25.2730 C   0  0  0  0  0  0  0  0  0  0  0  0
    7.7713  -12.2532   26.6316 C   0  0  0  0  0  0  0  0  0  0  0  0
    7.5111  -13.3666   27.3826 C   0  0  0  0  0  0  0  0  0  0  0  0
    7.0131  -14.5327   26.8150 C   0  0  0  0  0  0  0  0  0  0  0  0
    8.3794  -16.6324   24.0532 C   0  0  0  0  0  0  0  0  0  0  0  0
    8.4635  -17.7410   24.6668 O   0  0  0  0  0  0  0  0  0  0  0  0
    9.5525  -15.8921   23.8231 N   0  0  0  0  0  0  0  0  0  0  0  0
   10.9120  -16.3932   24.0122 C   0  0  1  0  0  0  0  0  0  0  0  0
   11.7683  -15.4647   23.1123 C   0  0  0  0  0  0  0  0  0  0  0  0
   13.1653  -15.9354   23.0323 C   0  0  0  0  0  0  0  0  0  0  0  0
   13.4620  -17.0551   23.5374 O   0  0  0  0  0  0  0  0  0  0  0  0
   11.2647  -16.1614   25.4355 C   0  0  0  0  0  0  0  0  0  0  0  0
   12.3537  -16.5918   25.9466 O   0  0  0  0  0  0  0  0  0  0  0  0
   14.1085  -15.1476   22.4122 O   0  0  0  0  0  0  0  0  0  0  0  0
    9.9796  -14.0017   28.3073 C   0  0  0  0  0  0  0  0  0  0  0  0
   10.7118  -15.1981   27.7270 C   0  0  2  0  0  0  0  0  0  0  0  0
   10.4194  -15.4397   26.3477 N   0  0  0  0  0  0  0  0  0  0  0  0
   10.4613  -16.4226   28.5060 C   0  0  0  0  0  0  0  0  0  0  0  0
    9.9077  -17.4045   27.9685 O   0  0  0  0  0  0  0  0  0  0  0  0
   10.8345  -16.4906   29.8245 O   0  0  0  0  0  0  0  0  0  0  0  0
  2  1  1  6
  2 10  1  0
  3  2  1  0
  4  9  2  0
  4  3  1  0
  5  4  1  0
  6  7  1  0
  6  5  2  0
  7  8  2  0
  8  9  1  0
 10 12  1  0
 11 10  2  0
 12 13  1  0
 13 17  1  0
 13 14  1  6
 15 19  1  0
 15 14  1  0
 16 15  2  0
 17 22  1  0
 17 18  2  0
 21 20  1  1
 22 21  1  0
 23 21  1  0
 23 25  1  0
 24 23  2  0
M  END
$$$$
