FDA.pdb
     RDKit          3D

 25 25  0  0  1  0  0  0  0  0999 V2000
    7.2899  -17.5720   20.9793 N   0  0  0  0  0  0  0  0  0  0  0  0
    8.5380  -16.8174   20.9398 C   0  0  1  0  0  0  0  0  0  0  0  0
    8.3087  -15.6339   21.9007 C   0  0  0  0  0  0  0  0  0  0  0  0
    7.9454  -14.4669   21.0755 C   0  0  0  0  0  0  0  0  0  0  0  0
    7.6122  -13.2288   21.6071 C   0  0  0  0  0  0  0  0  0  0  0  0
    7.2669  -12.1621   20.8158 C   0  0  0  0  0  0  0  0  0  0  0  0
    7.2439  -12.3019   19.4430 C   0  0  0  0  0  0  0  0  0  0  0  0
    7.5680  -13.5140   18.8978 C   0  0  0  0  0  0  0  0  0  0  0  0
    7.9195  -14.6016   19.6877 C   0  0  0  0  0  0  0  0  0  0  0  0
    9.5978  -17.6473   21.5921 C   0  0  0  0  0  0  0  0  0  0  0  0
    9.3157  -18.7246   22.2026 O   0  0  0  0  0  0  0  0  0  0  0  0
   10.9397  -17.2317   21.5315 N   0  0  0  0  0  0  0  0  0  0  0  0
   12.0641  -17.9325   22.1476 C   0  0  1  0  0  0  0  0  0  0  0  0
   13.3051  -17.2668   21.4980 C   0  0  0  0  0  0  0  0  0  0  0  0
   13.4729  -17.6987   20.0963 C   0  0  0  0  0  0  0  0  0  0  0  0
   14.0398  -16.9174   19.2806 O   0  0  0  0  0  0  0  0  0  0  0  0
   12.0341  -17.6098   23.5963 C   0  0  0  0  0  0  0  0  0  0  0  0
   12.9222  -18.0384   24.4087 O   0  0  0  0  0  0  0  0  0  0  0  0
   13.0104  -18.9367   19.7115 O   0  0  0  0  0  0  0  0  0  0  0  0
    9.8402  -15.5093   25.9515 C   0  0  0  0  0  0  0  0  0  0  0  0
   10.8449  -16.5933   25.6056 C   0  0  2  0  0  0  0  0  0  0  0  0
   11.0141  -16.7955   24.1997 N   0  0  0  0  0  0  0  0  0  0  0  0
   10.5106  -17.8743   26.2513 C   0  0  0  0  0  0  0  0  0  0  0  0
   10.7611  -18.0493   27.4622 O   0  0  0  0  0  0  0  0  0  0  0  0
    9.9231  -18.8801   25.5265 O   0  0  0  0  0  0  0  0  0  0  0  0
  2  1  1  1
  2 10  1  0
  3  2  1  0
  4  9  2  0
  4  3  1  0
  5  4  1  0
  6  7  1  0
  6  5  2  0
  7  8  2  0
  8  9  1  0
 10 12  1  0
 11 10  2  0
 12 13  1  0
 13 17  1  0
 13 14  1  6
 15 19  1  0
 15 14  1  0
 16 15  2  0
 17 22  1  0
 17 18  2  0
 21 20  1  6
 22 21  1  0
 23 21  1  0
 23 25  1  0
 24 23  2  0
M  END
$$$$
