FDA.pdb
     RDKit          3D

 25 25  0  0  1  0  0  0  0  0999 V2000
    9.7627  -15.6857   21.2980 N   0  0  0  0  0  0  0  0  0  0  0  0
    9.0525  -14.9054   22.3056 C   0  0  1  0  0  0  0  0  0  0  0  0
    7.5854  -14.9002   21.8322 C   0  0  0  0  0  0  0  0  0  0  0  0
    7.5294  -14.0977   20.5963 C   0  0  0  0  0  0  0  0  0  0  0  0
    7.0676  -14.5920   19.3843 C   0  0  0  0  0  0  0  0  0  0  0  0
    7.0368  -13.8260   18.2460 C   0  0  0  0  0  0  0  0  0  0  0  0
    7.4743  -12.5177   18.2844 C   0  0  0  0  0  0  0  0  0  0  0  0
    7.9345  -12.0104   19.4686 C   0  0  0  0  0  0  0  0  0  0  0  0
    7.9707  -12.7752   20.6279 C   0  0  0  0  0  0  0  0  0  0  0  0
    9.0473  -15.6928   23.5774 C   0  0  0  0  0  0  0  0  0  0  0  0
    8.1977  -15.4679   24.4942 O   0  0  0  0  0  0  0  0  0  0  0  0
   10.0018  -16.7073   23.7691 N   0  0  0  0  0  0  0  0  0  0  0  0
   10.2132  -17.4358   25.0180 C   0  0  1  0  0  0  0  0  0  0  0  0
   11.3535  -18.4277   24.6698 C   0  0  0  0  0  0  0  0  0  0  0  0
   11.6429  -19.3304   25.8015 C   0  0  0  0  0  0  0  0  0  0  0  0
   12.6666  -20.0694   25.7464 O   0  0  0  0  0  0  0  0  0  0  0  0
   10.7040  -16.4519   26.0154 C   0  0  0  0  0  0  0  0  0  0  0  0
   11.9014  -16.0065   26.0012 O   0  0  0  0  0  0  0  0  0  0  0  0
   10.7954  -19.3464   26.8859 O   0  0  0  0  0  0  0  0  0  0  0  0
    9.4442  -13.7910   28.2377 C   0  0  0  0  0  0  0  0  0  0  0  0
   10.3233  -15.0192   28.0859 C   0  0  2  0  0  0  0  0  0  0  0  0
    9.8809  -15.9228   27.0690 N   0  0  0  0  0  0  0  0  0  0  0  0
   10.4733  -15.7445   29.3589 C   0  0  0  0  0  0  0  0  0  0  0  0
   10.9162  -15.1552   30.3670 O   0  0  0  0  0  0  0  0  0  0  0  0
   10.1276  -17.0695   29.4435 O   0  0  0  0  0  0  0  0  0  0  0  0
  2  1  1  6
  2 10  1  0
  3  2  1  0
  4  9  2  0
  4  3  1  0
  5  4  1  0
  6  7  1  0
  6  5  2  0
  7  8  2  0
  8  9  1  0
 10 12  1  0
 11 10  2  0
 12 13  1  0
 13 17  1  0
 13 14  1  6
 15 19  1  0
 15 14  1  0
 16 15  2  0
 17 22  1  0
 17 18  2  0
 21 20  1  1
 22 21  1  0
 23 21  1  0
 23 25  1  0
 24 23  2  0
M  END
$$$$
