FDA.pdb
     RDKit          3D

 25 25  0  0  1  0  0  0  0  0999 V2000
    6.5946  -16.3123   22.3737 N   0  0  0  0  0  0  0  0  0  0  0  0
    6.0493  -16.9847   21.1993 C   0  0  1  0  0  0  0  0  0  0  0  0
    5.6905  -15.8429   20.2277 C   0  0  0  0  0  0  0  0  0  0  0  0
    6.6280  -14.7356   20.4916 C   0  0  0  0  0  0  0  0  0  0  0  0
    7.2277  -13.9863   19.4889 C   0  0  0  0  0  0  0  0  0  0  0  0
    8.1058  -12.9678   19.7627 C   0  0  0  0  0  0  0  0  0  0  0  0
    8.4174  -12.6604   21.0716 C   0  0  0  0  0  0  0  0  0  0  0  0
    7.8384  -13.3870   22.0756 C   0  0  0  0  0  0  0  0  0  0  0  0
    6.9479  -14.4203   21.8119 C   0  0  0  0  0  0  0  0  0  0  0  0
    7.1659  -17.7246   20.5334 C   0  0  0  0  0  0  0  0  0  0  0  0
    7.0207  -18.2565   19.3894 O   0  0  0  0  0  0  0  0  0  0  0  0
    8.4078  -17.8375   21.1830 N   0  0  0  0  0  0  0  0  0  0  0  0
    9.5579  -18.5798   20.6719 C   0  0  1  0  0  0  0  0  0  0  0  0
    9.9192  -17.8309   19.3628 C   0  0  0  0  0  0  0  0  0  0  0  0
   10.9132  -18.5831   18.5717 C   0  0  0  0  0  0  0  0  0  0  0  0
   10.7706  -19.8320   18.4410 O   0  0  0  0  0  0  0  0  0  0  0  0
   10.6559  -18.4085   21.6562 C   0  0  0  0  0  0  0  0  0  0  0  0
   11.8810  -18.3250   21.3031 O   0  0  0  0  0  0  0  0  0  0  0  0
   11.9677  -17.9103   17.9973 O   0  0  0  0  0  0  0  0  0  0  0  0
   11.3302  -16.8837   24.8713 C   0  0  0  0  0  0  0  0  0  0  0  0
   11.4582  -18.1603   24.0603 C   0  0  2  0  0  0  0  0  0  0  0  0
   10.4345  -18.3223   23.0743 N   0  0  0  0  0  0  0  0  0  0  0  0
   11.5053  -19.3533   24.9227 C   0  0  0  0  0  0  0  0  0  0  0  0
   12.3996  -19.4663   25.7871 O   0  0  0  0  0  0  0  0  0  0  0  0
   10.5680  -20.3451   24.7811 O   0  0  0  0  0  0  0  0  0  0  0  0
  2  1  1  1
  2 10  1  0
  3  2  1  0
  4  9  2  0
  4  3  1  0
  5  4  1  0
  6  7  1  0
  6  5  2  0
  7  8  2  0
  8  9  1  0
 10 12  1  0
 11 10  2  0
 12 13  1  0
 13 17  1  0
 13 14  1  6
 15 19  1  0
 15 14  1  0
 16 15  2  0
 17 22  1  0
 17 18  2  0
 21 20  1  1
 22 21  1  0
 23 21  1  0
 23 25  1  0
 24 23  2  0
M  END
$$$$
