FDA.pdb
     RDKit          3D

 25 25  0  0  1  0  0  0  0  0999 V2000
    5.7901  -16.0525   25.0540 N   0  0  0  0  0  0  0  0  0  0  0  0
    6.8142  -16.1381   24.0184 C   0  0  1  0  0  0  0  0  0  0  0  0
    6.9405  -14.7009   23.4752 C   0  0  0  0  0  0  0  0  0  0  0  0
    6.9958  -13.7983   24.6401 C   0  0  0  0  0  0  0  0  0  0  0  0
    8.1420  -13.1167   25.0252 C   0  0  0  0  0  0  0  0  0  0  0  0
    8.1685  -12.2910   26.1210 C   0  0  0  0  0  0  0  0  0  0  0  0
    7.0290  -12.1172   26.8800 C   0  0  0  0  0  0  0  0  0  0  0  0
    5.8883  -12.7803   26.5188 C   0  0  0  0  0  0  0  0  0  0  0  0
    5.8482  -13.6188   25.4117 C   0  0  0  0  0  0  0  0  0  0  0  0
    8.1226  -16.4166   24.6877 C   0  0  0  0  0  0  0  0  0  0  0  0
    8.1893  -16.6980   25.9243 O   0  0  0  0  0  0  0  0  0  0  0  0
    9.3103  -16.3678   23.9366 N   0  0  0  0  0  0  0  0  0  0  0  0
   10.5863  -16.9509   24.3452 C   0  0  1  0  0  0  0  0  0  0  0  0
   11.5021  -16.7147   23.1160 C   0  0  0  0  0  0  0  0  0  0  0  0
   12.8239  -17.3449   23.3034 C   0  0  0  0  0  0  0  0  0  0  0  0
   12.9755  -18.1776   24.2418 O   0  0  0  0  0  0  0  0  0  0  0  0
   11.0826  -16.1473   25.4905 C   0  0  0  0  0  0  0  0  0  0  0  0
   11.7952  -15.0991   25.3297 O   0  0  0  0  0  0  0  0  0  0  0  0
   13.8563  -17.0127   22.4558 O   0  0  0  0  0  0  0  0  0  0  0  0
   10.4258  -14.4634   28.2407 C   0  0  0  0  0  0  0  0  0  0  0  0
   11.2386  -15.7218   27.9963 C   0  0  2  0  0  0  0  0  0  0  0  0
   10.8045  -16.4776   26.8621 N   0  0  0  0  0  0  0  0  0  0  0  0
   11.2708  -16.5910   29.1850 C   0  0  0  0  0  0  0  0  0  0  0  0
   11.5310  -16.1082   30.3069 O   0  0  0  0  0  0  0  0  0  0  0  0
   11.0153  -17.9336   29.0656 O   0  0  0  0  0  0  0  0  0  0  0  0
  2  1  1  1
  2 10  1  0
  3  2  1  0
  4  9  2  0
  4  3  1  0
  5  4  1  0
  6  7  1  0
  6  5  2  0
  7  8  2  0
  8  9  1  0
 10 12  1  0
 11 10  2  0
 12 13  1  0
 13 17  1  0
 13 14  1  6
 15 19  1  0
 15 14  1  0
 16 15  2  0
 17 22  1  0
 17 18  2  0
 21 20  1  1
 22 21  1  0
 23 21  1  0
 23 25  1  0
 24 23  2  0
M  END
$$$$
