FVH.pdb
     RDKit          3D

 29 30  0  0  1  0  0  0  0  0999 V2000
    6.4395  -17.2787   26.0099 N   0  0  0  0  0  0  0  0  0  0  0  0
    6.9589  -16.1177   25.3546 C   0  0  1  0  0  0  0  0  0  0  0  0
    7.8280  -15.2833   26.2724 C   0  0  0  0  0  0  0  0  0  0  0  0
    7.1278  -14.0193   26.5601 C   0  0  0  0  0  0  0  0  0  0  0  0
    7.7313  -13.0227   27.2877 C   0  0  0  0  0  0  0  0  0  0  0  0
    7.0753  -11.8272   27.5689 C   0  0  0  0  0  0  0  0  0  0  0  0
    5.7943  -11.6370   27.1093 C   0  0  0  0  0  0  0  0  0  0  0  0
    5.1643  -12.6283   26.3729 C   0  0  0  0  0  0  0  0  0  0  0  0
    5.8497  -13.8186   26.1069 C   0  0  0  0  0  0  0  0  0  0  0  0
    7.6843  -16.4095   24.1143 C   0  0  0  0  0  0  0  0  0  0  0  0
    8.1782  -17.5552   23.8793 O   0  0  0  0  0  0  0  0  0  0  0  0
    6.6452  -14.7706   20.6172 C   0  0  0  0  0  0  0  0  0  0  0  0
    8.1244  -14.5615   20.8490 C   0  0  2  0  0  0  0  0  0  0  0  0
    8.8296  -14.8050   19.5433 C   0  0  0  0  0  0  0  0  0  0  0  0
    8.5686  -15.5380   21.9172 C   0  0  2  0  0  0  0  0  0  0  0  0
    7.8384  -15.3725   23.1436 N   0  0  0  0  0  0  0  0  0  0  0  0
   10.0089  -15.3510   22.2099 C   0  0  0  0  0  0  0  0  0  0  0  0
   10.3475  -14.6403   23.1861 O   0  0  0  0  0  0  0  0  0  0  0  0
   11.0172  -15.9530   21.4175 N   0  0  0  0  0  0  0  0  0  0  0  0
   12.0695  -16.7564   22.0100 C   0  0  1  0  0  0  0  0  0  0  0  0
   11.4274  -17.9231   22.6995 C   0  0  0  0  0  0  0  0  0  0  0  0
   12.4011  -18.7771   23.4134 C   0  0  0  0  0  0  0  0  0  0  0  0
   13.7727  -18.6111   23.5086 C   0  0  0  0  0  0  0  0  0  0  0  0
   14.2543  -19.6211   24.2524 N   0  0  0  0  0  0  0  0  0  0  0  0
   13.2486  -20.4129   24.6282 C   0  0  0  0  0  0  0  0  0  0  0  0
   12.1403  -19.8945   24.1174 N   0  0  0  0  0  0  0  0  0  0  0  0
   12.9820  -17.1938   20.9084 C   0  0  0  0  0  0  0  0  0  0  0  0
   12.5424  -17.7511   19.8695 O   0  0  0  0  0  0  0  0  0  0  0  0
   14.3564  -17.0055   20.9805 O   0  0  0  0  0  0  0  0  0  0  0  0
  2  1  1  1
  2  3  1  0
  2 10  1  0
  4  3  1  0
  4  9  1  0
  5  4  2  0
  6  5  1  0
  6  7  2  0
  7  8  1  0
  8  9  2  0
 10 11  2  0
 13 12  1  6
 13 14  1  0
 13 15  1  0
 15 16  1  1
 16 10  1  0
 17 15  1  0
 17 18  2  0
 19 17  1  0
 20 19  1  0
 20 27  1  0
 20 21  1  6
 22 21  1  0
 22 23  2  0
 24 23  1  0
 25 26  2  0
 25 24  1  0
 26 22  1  0
 27 28  2  0
 27 29  1  0
M  END
$$$$
