FVH.pdb
     RDKit          3D

 29 30  0  0  1  0  0  0  0  0999 V2000
    5.4718  -16.9122   25.8808 N   0  0  0  0  0  0  0  0  0  0  0  0
    6.3644  -15.8950   25.4163 C   0  0  1  0  0  0  0  0  0  0  0  0
    7.0618  -15.1816   26.5559 C   0  0  0  0  0  0  0  0  0  0  0  0
    6.5927  -13.7855   26.5922 C   0  0  0  0  0  0  0  0  0  0  0  0
    5.3505  -13.4661   27.0839 C   0  0  0  0  0  0  0  0  0  0  0  0
    4.8969  -12.1501   27.1171 C   0  0  0  0  0  0  0  0  0  0  0  0
    5.7083  -11.1453   26.6479 C   0  0  0  0  0  0  0  0  0  0  0  0
    6.9662  -11.4429   26.1468 C   0  0  0  0  0  0  0  0  0  0  0  0
    7.3936  -12.7749   26.1266 C   0  0  0  0  0  0  0  0  0  0  0  0
    7.3569  -16.3717   24.4480 C   0  0  0  0  0  0  0  0  0  0  0  0
    7.9165  -17.5054   24.5634 O   0  0  0  0  0  0  0  0  0  0  0  0
    8.7280  -13.6674   21.3861 C   0  0  0  0  0  0  0  0  0  0  0  0
    8.4292  -15.1089   21.0422 C   0  0  2  0  0  0  0  0  0  0  0  0
    7.0168  -15.1722   20.5298 C   0  0  0  0  0  0  0  0  0  0  0  0
    8.6069  -15.9319   22.3003 C   0  0  2  0  0  0  0  0  0  0  0  0
    7.7024  -15.5339   23.3435 N   0  0  0  0  0  0  0  0  0  0  0  0
    9.9904  -15.7882   22.8108 C   0  0  0  0  0  0  0  0  0  0  0  0
   10.4226  -14.6454   23.0934 O   0  0  0  0  0  0  0  0  0  0  0  0
   10.8414  -16.9067   22.9894 N   0  0  0  0  0  0  0  0  0  0  0  0
   12.2175  -16.7522   23.4206 C   0  0  1  0  0  0  0  0  0  0  0  0
   12.3688  -17.4464   24.7412 C   0  0  0  0  0  0  0  0  0  0  0  0
   11.7987  -16.6742   25.8662 C   0  0  0  0  0  0  0  0  0  0  0  0
   10.5694  -16.0394   25.9291 C   0  0  0  0  0  0  0  0  0  0  0  0
   10.4703  -15.4631   27.1387 N   0  0  0  0  0  0  0  0  0  0  0  0
   11.5801  -15.7068   27.8376 C   0  0  0  0  0  0  0  0  0  0  0  0
   12.3703  -16.4356   27.0614 N   0  0  0  0  0  0  0  0  0  0  0  0
   13.0935  -17.3571   22.3699 C   0  0  0  0  0  0  0  0  0  0  0  0
   12.6117  -17.9436   21.3663 O   0  0  0  0  0  0  0  0  0  0  0  0
   14.4790  -17.3000   22.4524 O   0  0  0  0  0  0  0  0  0  0  0  0
  2  1  1  1
  2  3  1  0
  2 10  1  0
  4  3  1  0
  4  9  1  0
  5  4  2  0
  6  5  1  0
  6  7  2  0
  7  8  1  0
  8  9  2  0
 10 11  2  0
 13 12  1  1
 13 14  1  0
 13 15  1  0
 15 16  1  1
 16 10  1  0
 17 15  1  0
 17 18  2  0
 19 17  1  0
 20 19  1  0
 20 27  1  0
 20 21  1  1
 22 21  1  0
 22 23  2  0
 24 23  1  0
 25 26  2  0
 25 24  1  0
 26 22  1  0
 27 28  2  0
 27 29  1  0
M  END
$$$$
