FVH.pdb
     RDKit          3D

 29 30  0  0  1  0  0  0  0  0999 V2000
    6.3168  -17.0510   24.9521 N   0  0  0  0  0  0  0  0  0  0  0  0
    6.9585  -15.8675   24.4678 C   0  0  1  0  0  0  0  0  0  0  0  0
    7.8392  -15.2234   25.5182 C   0  0  0  0  0  0  0  0  0  0  0  0
    7.1846  -13.9893   25.9864 C   0  0  0  0  0  0  0  0  0  0  0  0
    5.9619  -14.0269   26.6112 C   0  0  0  0  0  0  0  0  0  0  0  0
    5.3336  -12.8653   27.0521 C   0  0  0  0  0  0  0  0  0  0  0  0
    5.9483  -11.6515   26.8592 C   0  0  0  0  0  0  0  0  0  0  0  0
    7.1825  -11.5881   26.2310 C   0  0  0  0  0  0  0  0  0  0  0  0
    7.7884  -12.7728   25.7992 C   0  0  0  0  0  0  0  0  0  0  0  0
    7.7244  -16.0689   23.2338 C   0  0  0  0  0  0  0  0  0  0  0  0
    7.8902  -17.2211   22.7272 O   0  0  0  0  0  0  0  0  0  0  0  0
    7.2576  -12.7506   20.8923 C   0  0  0  0  0  0  0  0  0  0  0  0
    8.6008  -13.4131   20.6867 C   0  0  2  0  0  0  0  0  0  0  0  0
    8.9273  -13.3370   19.2208 C   0  0  0  0  0  0  0  0  0  0  0  0
    8.4887  -14.8457   21.1629 C   0  0  2  0  0  0  0  0  0  0  0  0
    8.2998  -14.9336   22.5847 N   0  0  0  0  0  0  0  0  0  0  0  0
    9.7185  -15.5951   20.8146 C   0  0  0  0  0  0  0  0  0  0  0  0
   10.0830  -15.6492   19.6159 O   0  0  0  0  0  0  0  0  0  0  0  0
   10.4964  -16.2540   21.7984 N   0  0  0  0  0  0  0  0  0  0  0  0
   11.9259  -16.4391   21.6369 C   0  0  1  0  0  0  0  0  0  0  0  0
   12.5537  -15.0852   21.4906 C   0  0  0  0  0  0  0  0  0  0  0  0
   13.2321  -14.9025   20.1894 C   0  0  0  0  0  0  0  0  0  0  0  0
   12.9829  -15.5619   18.9973 C   0  0  0  0  0  0  0  0  0  0  0  0
   13.8357  -15.0782   18.0785 N   0  0  0  0  0  0  0  0  0  0  0  0
   14.6082  -14.1462   18.6388 C   0  0  0  0  0  0  0  0  0  0  0  0
   14.2353  -14.0502   19.9076 N   0  0  0  0  0  0  0  0  0  0  0  0
   12.4303  -17.1591   22.8470 C   0  0  0  0  0  0  0  0  0  0  0  0
   11.6907  -17.3771   23.8413 O   0  0  0  0  0  0  0  0  0  0  0  0
   13.7379  -17.6207   22.9301 O   0  0  0  0  0  0  0  0  0  0  0  0
  2  1  1  1
  2  3  1  0
  2 10  1  0
  4  3  1  0
  4  9  1  0
  5  4  2  0
  6  5  1  0
  6  7  2  0
  7  8  1  0
  8  9  2  0
 10 11  2  0
 13 12  1  6
 13 14  1  0
 13 15  1  0
 15 16  1  1
 16 10  1  0
 17 15  1  0
 17 18  2  0
 19 17  1  0
 20 19  1  0
 20 27  1  0
 20 21  1  1
 22 21  1  0
 22 23  2  0
 24 23  1  0
 25 26  2  0
 25 24  1  0
 26 22  1  0
 27 28  2  0
 27 29  1  0
M  END
$$$$
