FVH.pdb
     RDKit          3D

 29 30  0  0  1  0  0  0  0  0999 V2000
    7.2905  -15.9260   20.9902 N   0  0  0  0  0  0  0  0  0  0  0  0
    6.8165  -16.1091   22.3277 C   0  0  1  0  0  0  0  0  0  0  0  0
    6.4568  -17.5520   22.6149 C   0  0  0  0  0  0  0  0  0  0  0  0
    5.1086  -17.8143   22.0816 C   0  0  0  0  0  0  0  0  0  0  0  0
    4.8828  -17.8933   20.7290 C   0  0  0  0  0  0  0  0  0  0  0  0
    3.6112  -18.1355   20.2161 C   0  0  0  0  0  0  0  0  0  0  0  0
    2.5557  -18.2998   21.0805 C   0  0  0  0  0  0  0  0  0  0  0  0
    2.7588  -18.2243   22.4498 C   0  0  0  0  0  0  0  0  0  0  0  0
    4.0481  -17.9796   22.9345 C   0  0  0  0  0  0  0  0  0  0  0  0
    7.7347  -15.6123   23.3572 C   0  0  0  0  0  0  0  0  0  0  0  0
    8.9936  -15.7373   23.2507 O   0  0  0  0  0  0  0  0  0  0  0  0
    6.7716  -12.3345   25.7172 C   0  0  0  0  0  0  0  0  0  0  0  0
    7.2146  -13.5451   26.5070 C   0  0  2  0  0  0  0  0  0  0  0  0
    8.0536  -13.0581   27.6560 C   0  0  0  0  0  0  0  0  0  0  0  0
    8.0036  -14.4418   25.5768 C   0  0  2  0  0  0  0  0  0  0  0  0
    7.1943  -14.9693   24.5130 N   0  0  0  0  0  0  0  0  0  0  0  0
    8.5726  -15.5827   26.3317 C   0  0  0  0  0  0  0  0  0  0  0  0
    7.8028  -16.4683   26.7741 O   0  0  0  0  0  0  0  0  0  0  0  0
    9.9641  -15.7027   26.5687 N   0  0  0  0  0  0  0  0  0  0  0  0
   10.5101  -16.8007   27.3433 C   0  0  1  0  0  0  0  0  0  0  0  0
   11.9264  -17.0189   26.9012 C   0  0  0  0  0  0  0  0  0  0  0  0
   12.0235  -17.5820   25.5372 C   0  0  0  0  0  0  0  0  0  0  0  0
   10.9961  -18.0322   24.7249 C   0  0  0  0  0  0  0  0  0  0  0  0
   11.5438  -18.4580   23.5742 N   0  0  0  0  0  0  0  0  0  0  0  0
   12.8668  -18.2959   23.6270 C   0  0  0  0  0  0  0  0  0  0  0  0
   13.1421  -17.7686   24.8120 N   0  0  0  0  0  0  0  0  0  0  0  0
   10.4299  -16.4215   28.7880 C   0  0  0  0  0  0  0  0  0  0  0  0
   10.2093  -15.2362   29.1480 O   0  0  0  0  0  0  0  0  0  0  0  0
   10.5951  -17.3593   29.7994 O   0  0  0  0  0  0  0  0  0  0  0  0
  2  1  1  6
  2  3  1  0
  2 10  1  0
  4  3  1  0
  4  9  1  0
  5  4  2  0
  6  5  1  0
  6  7  2  0
  7  8  1  0
  8  9  2  0
 10 11  2  0
 13 12  1  6
 13 14  1  0
 13 15  1  0
 15 16  1  6
 16 10  1  0
 17 15  1  0
 17 18  2  0
 19 17  1  0
 20 19  1  0
 20 27  1  0
 20 21  1  6
 22 21  1  0
 22 23  2  0
 24 23  1  0
 25 26  2  0
 25 24  1  0
 26 22  1  0
 27 28  2  0
 27 29  1  0
M  END
$$$$
