FVH.pdb
     RDKit          3D

 29 30  0  0  1  0  0  0  0  0999 V2000
    7.0015  -15.9828   22.3446 N   0  0  0  0  0  0  0  0  0  0  0  0
    8.4298  -16.0658   22.3535 C   0  0  1  0  0  0  0  0  0  0  0  0
    9.0491  -15.4046   21.1397 C   0  0  0  0  0  0  0  0  0  0  0  0
    8.1918  -14.2782   20.7308 C   0  0  0  0  0  0  0  0  0  0  0  0
    7.1892  -14.4474   19.8074 C   0  0  0  0  0  0  0  0  0  0  0  0
    6.3778  -13.3876   19.4112 C   0  0  0  0  0  0  0  0  0  0  0  0
    6.5822  -12.1421   19.9548 C   0  0  0  0  0  0  0  0  0  0  0  0
    7.5880  -11.9467   20.8887 C   0  0  0  0  0  0  0  0  0  0  0  0
    8.3868  -13.0313   21.2664 C   0  0  0  0  0  0  0  0  0  0  0  0
    9.0484  -15.5401   23.5745 C   0  0  0  0  0  0  0  0  0  0  0  0
   10.3074  -15.4305   23.6954 O   0  0  0  0  0  0  0  0  0  0  0  0
    7.1932  -12.7459   25.8165 C   0  0  0  0  0  0  0  0  0  0  0  0
    7.6687  -13.8833   26.6915 C   0  0  2  0  0  0  0  0  0  0  0  0
    8.2404  -13.2848   27.9471 C   0  0  0  0  0  0  0  0  0  0  0  0
    8.7107  -14.6605   25.9156 C   0  0  2  0  0  0  0  0  0  0  0  0
    8.2075  -15.1402   24.6581 N   0  0  0  0  0  0  0  0  0  0  0  0
    9.1662  -15.8287   26.7051 C   0  0  0  0  0  0  0  0  0  0  0  0
    8.3547  -16.7513   26.9561 O   0  0  0  0  0  0  0  0  0  0  0  0
   10.4946  -15.9341   27.1859 N   0  0  0  0  0  0  0  0  0  0  0  0
   10.8957  -17.0038   28.0796 C   0  0  1  0  0  0  0  0  0  0  0  0
   12.2624  -17.4627   27.6670 C   0  0  0  0  0  0  0  0  0  0  0  0
   12.2498  -18.2651   26.4248 C   0  0  0  0  0  0  0  0  0  0  0  0
   11.1535  -18.6697   25.6815 C   0  0  0  0  0  0  0  0  0  0  0  0
   11.6101  -19.3781   24.6352 N   0  0  0  0  0  0  0  0  0  0  0  0
   12.9417  -19.4368   24.6875 C   0  0  0  0  0  0  0  0  0  0  0  0
   13.3136  -18.7639   25.7678 N   0  0  0  0  0  0  0  0  0  0  0  0
   10.8881  -16.4588   29.4725 C   0  0  0  0  0  0  0  0  0  0  0  0
   10.7916  -15.2247   29.6978 O   0  0  0  0  0  0  0  0  0  0  0  0
   10.9873  -17.2889   30.5820 O   0  0  0  0  0  0  0  0  0  0  0  0
  2  1  1  1
  2  3  1  0
  2 10  1  0
  4  3  1  0
  4  9  1  0
  5  4  2  0
  6  5  1  0
  6  7  2  0
  7  8  1  0
  8  9  2  0
 10 11  2  0
 13 12  1  6
 13 14  1  0
 13 15  1  0
 15 16  1  6
 16 10  1  0
 17 15  1  0
 17 18  2  0
 19 17  1  0
 20 19  1  0
 20 27  1  0
 20 21  1  6
 22 21  1  0
 22 23  2  0
 24 23  1  0
 25 26  2  0
 25 24  1  0
 26 22  1  0
 27 28  2  0
 27 29  1  0
M  END
$$$$
