FVH.pdb
     RDKit          3D

 29 30  0  0  1  0  0  0  0  0999 V2000
    5.9065  -17.9075   25.5663 N   0  0  0  0  0  0  0  0  0  0  0  0
    6.5961  -16.6598   25.4462 C   0  0  1  0  0  0  0  0  0  0  0  0
    7.1484  -16.1811   26.7728 C   0  0  0  0  0  0  0  0  0  0  0  0
    7.0177  -14.7148   26.8336 C   0  0  0  0  0  0  0  0  0  0  0  0
    8.1064  -13.9142   27.0794 C   0  0  0  0  0  0  0  0  0  0  0  0
    7.9911  -12.5282   27.1438 C   0  0  0  0  0  0  0  0  0  0  0  0
    6.7610  -11.9446   26.9576 C   0  0  0  0  0  0  0  0  0  0  0  0
    5.6475  -12.7318   26.7082 C   0  0  0  0  0  0  0  0  0  0  0  0
    5.7955  -14.1218   26.6495 C   0  0  0  0  0  0  0  0  0  0  0  0
    7.6606  -16.6633   24.4379 C   0  0  0  0  0  0  0  0  0  0  0  0
    8.5220  -17.5937   24.3746 O   0  0  0  0  0  0  0  0  0  0  0  0
    8.2991  -13.1741   22.0151 C   0  0  0  0  0  0  0  0  0  0  0  0
    8.2352  -14.5297   21.3489 C   0  0  2  0  0  0  0  0  0  0  0  0
    6.8283  -14.7306   20.8575 C   0  0  0  0  0  0  0  0  0  0  0  0
    8.6242  -15.5702   22.3775 C   0  0  2  0  0  0  0  0  0  0  0  0
    7.7280  -15.5871   23.5005 N   0  0  0  0  0  0  0  0  0  0  0  0
    9.9906  -15.3000   22.8827 C   0  0  0  0  0  0  0  0  0  0  0  0
   10.1863  -14.2982   23.6113 O   0  0  0  0  0  0  0  0  0  0  0  0
   11.0849  -16.1421   22.5661 N   0  0  0  0  0  0  0  0  0  0  0  0
   12.1142  -16.4479   23.5412 C   0  0  1  0  0  0  0  0  0  0  0  0
   11.4413  -16.9735   24.7740 C   0  0  0  0  0  0  0  0  0  0  0  0
   11.3940  -15.9829   25.8709 C   0  0  0  0  0  0  0  0  0  0  0  0
   11.8430  -14.6729   25.8575 C   0  0  0  0  0  0  0  0  0  0  0  0
   11.5982  -14.1461   27.0691 N   0  0  0  0  0  0  0  0  0  0  0  0
   11.0166  -15.0648   27.8419 C   0  0  0  0  0  0  0  0  0  0  0  0
   10.8996  -16.1641   27.1099 N   0  0  0  0  0  0  0  0  0  0  0  0
   13.0306  -17.4610   22.9320 C   0  0  0  0  0  0  0  0  0  0  0  0
   14.2786  -17.3936   23.0769 O   0  0  0  0  0  0  0  0  0  0  0  0
   12.5473  -18.5231   22.1782 O   0  0  0  0  0  0  0  0  0  0  0  0
  2  1  1  1
  2  3  1  0
  2 10  1  0
  4  3  1  0
  4  9  1  0
  5  4  2  0
  6  5  1  0
  6  7  2  0
  7  8  1  0
  8  9  2  0
 10 11  2  0
 13 12  1  1
 13 14  1  0
 13 15  1  0
 15 16  1  1
 16 10  1  0
 17 15  1  0
 17 18  2  0
 19 17  1  0
 20 19  1  0
 20 27  1  0
 20 21  1  1
 22 21  1  0
 22 23  2  0
 24 23  1  0
 25 26  2  0
 25 24  1  0
 26 22  1  0
 27 28  2  0
 27 29  1  0
M  END
$$$$
