RKK.pdb
     RDKit          3D

 30 29  0  0  1  0  0  0  0  0999 V2000
    8.7472  -11.5757   19.0226 N   0  0  0  0  0  0  0  0  0  0  0  0
    9.5471  -12.6774   19.4102 C   0  0  0  0  0  0  0  0  0  0  0  0
   10.7555  -12.5699   19.8723 N   0  0  0  0  0  0  0  0  0  0  0  0
    9.0178  -13.9979   19.2908 N   0  0  0  0  0  0  0  0  0  0  0  0
    7.8188  -14.2562   18.4916 C   0  0  0  0  0  0  0  0  0  0  0  0
    6.6666  -14.5605   19.3903 C   0  0  0  0  0  0  0  0  0  0  0  0
    6.9984  -15.4496   20.5604 C   0  0  0  0  0  0  0  0  0  0  0  0
    7.5256  -16.7670   20.0251 C   0  0  2  0  0  0  0  0  0  0  0  0
    6.3890  -17.6528   19.7842 N   0  0  0  0  0  0  0  0  0  0  0  0
    8.4326  -17.4340   20.9644 C   0  0  0  0  0  0  0  0  0  0  0  0
    7.9435  -17.9763   21.9799 O   0  0  0  0  0  0  0  0  0  0  0  0
   11.3342  -13.4563   19.9786 N   0  0  0  0  0  0  0  0  0  0  0  0
    9.8385  -17.5061   20.7934 C   0  0  2  0  0  0  0  0  0  0  0  0
   10.6885  -18.0987   21.8306 C   0  0  0  0  0  0  0  0  0  0  0  0
   11.9526  -18.6507   21.1378 C   0  0  0  0  0  0  0  0  0  0  0  0
   12.8996  -19.3259   22.0578 C   0  0  0  0  0  0  0  0  0  0  0  0
   14.0866  -19.9676   21.4034 C   0  0  0  0  0  0  0  0  0  0  0  0
   14.9137  -20.6153   22.5137 N   0  0  0  0  0  0  0  0  0  0  0  0
   16.0287  -21.3361   21.9262 C   0  0  0  0  0  0  0  0  0  0  0  0
   11.1525  -17.1371   22.8211 O   0  0  0  0  0  0  0  0  0  0  0  0
   11.6120  -16.0291   22.3944 N   0  0  0  0  0  0  0  0  0  0  0  0
   11.1428  -17.2953   24.2181 C   0  0  1  0  0  0  0  0  0  0  0  0
   11.7380  -16.3003   25.1441 C   0  0  0  0  0  0  0  0  0  0  0  0
   11.0606  -16.4745   26.4985 C   0  0  0  0  0  0  0  0  0  0  0  0
   11.6306  -15.5991   27.5617 C   0  0  0  0  0  0  0  0  0  0  0  0
   10.9311  -15.7493   28.8997 C   0  0  0  0  0  0  0  0  0  0  0  0
   11.5120  -14.7481   29.8608 N   0  0  0  0  0  0  0  0  0  0  0  0
   10.8422  -14.8666   31.1465 C   0  0  0  0  0  0  0  0  0  0  0  0
   13.1693  -16.4868   25.2652 O   0  0  0  0  0  0  0  0  0  0  0  0
   13.7064  -17.6572   25.3172 O   0  0  0  0  0  0  0  0  0  0  0  0
  2  1  1  0
  2  4  1  0
  3  2  2  0
  4  5  1  0
  5  6  1  0
  6  7  1  0
  7  8  1  0
  8  9  1  1
 10  8  1  0
 11 10  2  0
 12 10  1  0
 13 19  1  0
 13 12  1  0
 13 14  1  6
 15 14  1  0
 16 15  1  0
 17 16  1  0
 18 17  1  0
 19 21  1  0
 20 19  2  0
 21 22  1  0
 22 28  1  0
 22 23  1  1
 23 24  1  0
 25 24  1  0
 26 25  1  0
 26 27  1  0
 28 29  2  0
 28 30  1  0
M  END
$$$$
