RKK.pdb
     RDKit          3D

 30 29  0  0  1  0  0  0  0  0999 V2000
    9.6116  -15.1245   15.1875 N   0  0  0  0  0  0  0  0  0  0  0  0
    8.5315  -14.3537   14.6947 C   0  0  0  0  0  0  0  0  0  0  0  0
    8.4701  -13.8785   13.4881 N   0  0  0  0  0  0  0  0  0  0  0  0
    7.4328  -14.0628   15.5585 N   0  0  0  0  0  0  0  0  0  0  0  0
    7.3546  -14.6507   16.8969 C   0  0  0  0  0  0  0  0  0  0  0  0
    8.7273  -14.9540   17.3982 C   0  0  0  0  0  0  0  0  0  0  0  0
    9.0910  -14.2706   18.6906 C   0  0  0  0  0  0  0  0  0  0  0  0
    9.0438  -15.2987   19.8046 C   0  0  2  0  0  0  0  0  0  0  0  0
    7.7022  -15.8760   19.8404 N   0  0  0  0  0  0  0  0  0  0  0  0
    9.3252  -14.7165   21.1206 C   0  0  0  0  0  0  0  0  0  0  0  0
   10.4126  -14.1211   21.2874 O   0  0  0  0  0  0  0  0  0  0  0  0
    7.5630  -13.4203   13.1734 N   0  0  0  0  0  0  0  0  0  0  0  0
    8.4366  -14.7836   22.2237 C   0  0  1  0  0  0  0  0  0  0  0  0
    8.7697  -14.1299   23.4930 C   0  0  0  0  0  0  0  0  0  0  0  0
    7.4425  -13.7799   24.1991 C   0  0  0  0  0  0  0  0  0  0  0  0
    7.6145  -13.1183   25.5151 C   0  0  0  0  0  0  0  0  0  0  0  0
    6.3444  -12.7333   26.2134 C   0  0  0  0  0  0  0  0  0  0  0  0
    6.7421  -12.0793   27.5365 N   0  0  0  0  0  0  0  0  0  0  0  0
    5.5474  -11.7866   28.3078 C   0  0  0  0  0  0  0  0  0  0  0  0
    9.5077  -14.9859   24.4114 O   0  0  0  0  0  0  0  0  0  0  0  0
    8.9751  -16.0955   24.7371 N   0  0  0  0  0  0  0  0  0  0  0  0
   10.7655  -14.7229   24.9819 C   0  0  2  0  0  0  0  0  0  0  0  0
   11.4110  -15.6331   25.9600 C   0  0  0  0  0  0  0  0  0  0  0  0
   10.4986  -15.7156   27.1782 C   0  0  0  0  0  0  0  0  0  0  0  0
   10.9909  -16.6576   28.2232 C   0  0  0  0  0  0  0  0  0  0  0  0
   10.1769  -16.6111   29.5027 C   0  0  0  0  0  0  0  0  0  0  0  0
   10.8288  -17.5077   30.5199 N   0  0  0  0  0  0  0  0  0  0  0  0
   10.0356  -17.5132   31.7391 C   0  0  0  0  0  0  0  0  0  0  0  0
   11.6202  -16.9495   25.3930 O   0  0  0  0  0  0  0  0  0  0  0  0
   12.3627  -17.8331   25.9665 O   0  0  0  0  0  0  0  0  0  0  0  0
  2  1  1  0
  2  4  1  0
  3  2  2  0
  4  5  1  0
  5  6  1  0
  6  7  1  0
  7  8  1  0
  8  9  1  1
 10  8  1  0
 11 10  2  0
 12 10  1  0
 13 19  1  0
 13 12  1  0
 13 14  1  1
 15 14  1  0
 16 15  1  0
 17 16  1  0
 18 17  1  0
 19 21  1  0
 20 19  2  0
 21 22  1  0
 22 28  1  0
 22 23  1  1
 23 24  1  0
 25 24  1  0
 26 25  1  0
 26 27  1  0
 28 29  2  0
 28 30  1  0
M  END
$$$$
