RKK.pdb
     RDKit          3D

 30 29  0  0  1  0  0  0  0  0999 V2000
    7.7896  -22.8625   14.1000 N   0  0  0  0  0  0  0  0  0  0  0  0
    8.7317  -23.9186   14.0686 C   0  0  0  0  0  0  0  0  0  0  0  0
    8.6185  -24.9699   13.3154 N   0  0  0  0  0  0  0  0  0  0  0  0
    9.8825  -23.8499   14.9105 N   0  0  0  0  0  0  0  0  0  0  0  0
   10.1013  -22.7002   15.7898 C   0  0  0  0  0  0  0  0  0  0  0  0
    9.8553  -23.0931   17.2086 C   0  0  0  0  0  0  0  0  0  0  0  0
   10.2192  -22.0424   18.2251 C   0  0  0  0  0  0  0  0  0  0  0  0
    9.2157  -20.9100   18.1219 C   0  0  2  0  0  0  0  0  0  0  0  0
    9.0777  -20.5453   16.7138 N   0  0  0  0  0  0  0  0  0  0  0  0
    9.6352  -19.7165   18.8632 C   0  0  0  0  0  0  0  0  0  0  0  0
   10.7328  -19.7438   19.4624 O   0  0  0  0  0  0  0  0  0  0  0  0
    9.3823  -25.7088   13.3647 N   0  0  0  0  0  0  0  0  0  0  0  0
    8.8720  -18.5239   18.9434 C   0  0  1  0  0  0  0  0  0  0  0  0
    9.3895  -17.3516   19.6554 C   0  0  0  0  0  0  0  0  0  0  0  0
    8.4028  -16.1887   19.4172 C   0  0  0  0  0  0  0  0  0  0  0  0
    8.8410  -14.8961   19.9971 C   0  0  0  0  0  0  0  0  0  0  0  0
    7.9008  -13.7460   19.7913 C   0  0  0  0  0  0  0  0  0  0  0  0
    8.5777  -12.5053   20.3734 N   0  0  0  0  0  0  0  0  0  0  0  0
    7.7267  -11.3481   20.1621 C   0  0  0  0  0  0  0  0  0  0  0  0
    9.4647  -17.5343   21.0983 O   0  0  0  0  0  0  0  0  0  0  0  0
    8.4746  -18.0919   21.6725 N   0  0  0  0  0  0  0  0  0  0  0  0
   10.5283  -17.1646   21.9402 C   0  0  1  0  0  0  0  0  0  0  0  0
   10.4934  -17.3561   23.4112 C   0  0  0  0  0  0  0  0  0  0  0  0
   11.7497  -18.1261   23.8014 C   0  0  0  0  0  0  0  0  0  0  0  0
   11.4808  -19.5411   24.1852 C   0  0  0  0  0  0  0  0  0  0  0  0
   12.7429  -20.3378   24.4576 C   0  0  0  0  0  0  0  0  0  0  0  0
   12.3519  -21.6976   24.9691 N   0  0  0  0  0  0  0  0  0  0  0  0
   13.5316  -22.5454   25.0404 C   0  0  0  0  0  0  0  0  0  0  0  0
   10.4415  -16.0855   24.1047 O   0  0  0  0  0  0  0  0  0  0  0  0
   10.7428  -14.9748   23.5245 O   0  0  0  0  0  0  0  0  0  0  0  0
  2  1  1  0
  2  4  1  0
  3  2  2  0
  4  5  1  0
  5  6  1  0
  6  7  1  0
  7  8  1  0
  8  9  1  6
 10  8  1  0
 11 10  2  0
 12 10  1  0
 13 19  1  0
 13 12  1  0
 13 14  1  6
 15 14  1  0
 16 15  1  0
 17 16  1  0
 18 17  1  0
 19 21  1  0
 20 19  2  0
 21 22  1  0
 22 28  1  0
 22 23  1  1
 23 24  1  0
 25 24  1  0
 26 25  1  0
 26 27  1  0
 28 29  2  0
 28 30  1  0
M  END
$$$$
