RKK.pdb
     RDKit          3D

 30 29  0  0  1  0  0  0  0  0999 V2000
    6.9892  -12.6910   17.5110 N   0  0  0  0  0  0  0  0  0  0  0  0
    8.2839  -12.6467   18.0817 C   0  0  0  0  0  0  0  0  0  0  0  0
    8.8696  -11.5545   18.4683 N   0  0  0  0  0  0  0  0  0  0  0  0
    9.0130  -13.8627   18.2485 N   0  0  0  0  0  0  0  0  0  0  0  0
    8.3953  -15.1552   17.9471 C   0  0  0  0  0  0  0  0  0  0  0  0
    8.2303  -15.9434   19.2037 C   0  0  0  0  0  0  0  0  0  0  0  0
    9.4673  -16.6755   19.6548 C   0  0  0  0  0  0  0  0  0  0  0  0
    9.1458  -17.4083   20.9431 C   0  0  2  0  0  0  0  0  0  0  0  0
    7.7276  -17.7593   20.9303 N   0  0  0  0  0  0  0  0  0  0  0  0
    9.4032  -16.5928   22.1342 C   0  0  0  0  0  0  0  0  0  0  0  0
   10.5846  -16.2721   22.3914 O   0  0  0  0  0  0  0  0  0  0  0  0
    9.8540  -11.6249   18.8655 N   0  0  0  0  0  0  0  0  0  0  0  0
    8.3916  -16.1394   23.0185 C   0  0  1  0  0  0  0  0  0  0  0  0
    8.7409  -15.4360   24.2564 C   0  0  0  0  0  0  0  0  0  0  0  0
    7.4716  -14.7135   24.7558 C   0  0  0  0  0  0  0  0  0  0  0  0
    7.6693  -13.9386   26.0046 C   0  0  0  0  0  0  0  0  0  0  0  0
    6.4666  -13.1884   26.4944 C   0  0  0  0  0  0  0  0  0  0  0  0
    6.9051  -12.3951   27.7252 N   0  0  0  0  0  0  0  0  0  0  0  0
    5.7685  -11.6662   28.2589 C   0  0  0  0  0  0  0  0  0  0  0  0
    9.1552  -16.3250   25.3330 O   0  0  0  0  0  0  0  0  0  0  0  0
    8.3596  -17.2640   25.6588 N   0  0  0  0  0  0  0  0  0  0  0  0
   10.3577  -16.2656   26.0592 C   0  0  1  0  0  0  0  0  0  0  0  0
   10.7047  -17.2420   27.1212 C   0  0  0  0  0  0  0  0  0  0  0  0
   11.7853  -18.1601   26.5621 C   0  0  0  0  0  0  0  0  0  0  0  0
   12.2364  -19.2003   27.5297 C   0  0  0  0  0  0  0  0  0  0  0  0
   13.2670  -20.1509   26.9497 C   0  0  0  0  0  0  0  0  0  0  0  0
   13.7114  -21.0965   28.0322 N   0  0  0  0  0  0  0  0  0  0  0  0
   14.6655  -22.0470   27.4827 C   0  0  0  0  0  0  0  0  0  0  0  0
   11.1763  -16.5723   28.3159 O   0  0  0  0  0  0  0  0  0  0  0  0
   10.7244  -16.8614   29.4877 O   0  0  0  0  0  0  0  0  0  0  0  0
  2  1  1  0
  2  4  1  0
  3  2  2  0
  4  5  1  0
  5  6  1  0
  6  7  1  0
  7  8  1  0
  8  9  1  6
 10  8  1  0
 11 10  2  0
 12 10  1  0
 13 19  1  0
 13 12  1  0
 13 14  1  1
 15 14  1  0
 16 15  1  0
 17 16  1  0
 18 17  1  0
 19 21  1  0
 20 19  2  0
 21 22  1  0
 22 28  1  0
 22 23  1  1
 23 24  1  0
 25 24  1  0
 26 25  1  0
 26 27  1  0
 28 29  2  0
 28 30  1  0
M  END
$$$$
