RKK.pdb
     RDKit          3D

 30 29  0  0  1  0  0  0  0  0999 V2000
    7.7439  -13.2147   15.0617 N   0  0  0  0  0  0  0  0  0  0  0  0
    8.2789  -14.5175   15.2037 C   0  0  0  0  0  0  0  0  0  0  0  0
    8.1497  -15.4558   14.3157 N   0  0  0  0  0  0  0  0  0  0  0  0
    9.0044  -14.8468   16.3882 N   0  0  0  0  0  0  0  0  0  0  0  0
    9.0349  -13.9295   17.5287 C   0  0  0  0  0  0  0  0  0  0  0  0
    7.6596  -13.7671   18.0853 C   0  0  0  0  0  0  0  0  0  0  0  0
    7.4150  -14.4948   19.3816 C   0  0  0  0  0  0  0  0  0  0  0  0
    8.0360  -15.8746   19.2794 C   0  0  2  0  0  0  0  0  0  0  0  0
    7.1266  -16.7330   18.5239 N   0  0  0  0  0  0  0  0  0  0  0  0
    8.2598  -16.4900   20.5914 C   0  0  0  0  0  0  0  0  0  0  0  0
    7.3535  -16.4071   21.4495 O   0  0  0  0  0  0  0  0  0  0  0  0
    8.6408  -16.3835   14.4890 N   0  0  0  0  0  0  0  0  0  0  0  0
    9.4452  -17.1799   20.9519 C   0  0  1  0  0  0  0  0  0  0  0  0
    9.5600  -17.8376   22.2570 C   0  0  0  0  0  0  0  0  0  0  0  0
   10.6421  -18.9314   22.1339 C   0  0  0  0  0  0  0  0  0  0  0  0
   10.8563  -19.7119   23.3765 C   0  0  0  0  0  0  0  0  0  0  0  0
   11.9279  -20.7585   23.3032 C   0  0  0  0  0  0  0  0  0  0  0  0
   11.9522  -21.4693   24.6562 N   0  0  0  0  0  0  0  0  0  0  0  0
   12.8640  -22.5973   24.5918 C   0  0  0  0  0  0  0  0  0  0  0  0
   10.0000  -16.9455   23.3207 O   0  0  0  0  0  0  0  0  0  0  0  0
   11.0578  -16.2664   23.1181 N   0  0  0  0  0  0  0  0  0  0  0  0
    9.3736  -16.7417   24.5627 C   0  0  1  0  0  0  0  0  0  0  0  0
    9.9152  -15.8245   25.5957 C   0  0  0  0  0  0  0  0  0  0  0  0
    8.7604  -15.4341   26.5107 C   0  0  0  0  0  0  0  0  0  0  0  0
    9.1566  -14.4885   27.5926 C   0  0  0  0  0  0  0  0  0  0  0  0
    8.2535  -13.2730   27.6859 C   0  0  0  0  0  0  0  0  0  0  0  0
    8.7170  -12.4167   28.8329 N   0  0  0  0  0  0  0  0  0  0  0  0
    7.8753  -11.2341   28.9249 C   0  0  0  0  0  0  0  0  0  0  0  0
   10.9734  -16.4571   26.3562 O   0  0  0  0  0  0  0  0  0  0  0  0
   10.9304  -17.7021   26.6866 O   0  0  0  0  0  0  0  0  0  0  0  0
  2  1  1  0
  2  4  1  0
  3  2  2  0
  4  5  1  0
  5  6  1  0
  6  7  1  0
  7  8  1  0
  8  9  1  6
 10  8  1  0
 11 10  2  0
 12 10  1  0
 13 19  1  0
 13 12  1  0
 13 14  1  1
 15 14  1  0
 16 15  1  0
 17 16  1  0
 18 17  1  0
 19 21  1  0
 20 19  2  0
 21 22  1  0
 22 28  1  0
 22 23  1  1
 23 24  1  0
 25 24  1  0
 26 25  1  0
 26 27  1  0
 28 29  2  0
 28 30  1  0
M  END
$$$$
