ENA.pdb
     RDKit          3D

 23 22  0  0  1  0  0  0  0  0999 V2000
   19.7985  -11.9122  -15.7167 N   0  0  0  0  0  0  0  0  0  0  0  0
   19.2419  -10.7615  -16.4034 C   0  0  1  0  0  0  0  0  0  0  0  0
   17.7913  -10.6610  -16.0762 C   0  0  0  0  0  0  0  0  0  0  0  0
   17.0777  -11.8718  -16.6613 C   0  0  0  0  0  0  0  0  0  0  0  0
   16.5887  -12.7805  -15.6215 C   0  0  0  0  0  0  0  0  0  0  0  0
   16.5670  -12.4022  -14.4264 O   0  0  0  0  0  0  0  0  0  0  0  0
   20.0307   -9.5504  -16.0244 C   0  0  0  0  0  0  0  0  0  0  0  0
   20.0027   -9.0462  -14.8789 O   0  0  0  0  0  0  0  0  0  0  0  0
   16.1394  -14.0634  -15.8950 O   0  0  0  0  0  0  0  0  0  0  0  0
   25.2089   -6.6712  -17.8107 N   0  0  0  0  0  0  0  0  0  0  0  0
   23.9863   -6.8163  -17.1020 C   0  0  0  0  0  0  0  0  0  0  0  0
   23.7583   -5.9916  -16.1888 O   0  0  0  0  0  0  0  0  0  0  0  0
   23.0258   -7.8766  -17.4127 C   0  0  0  0  0  0  0  0  0  0  0  0
   21.7170   -7.7808  -16.6743 C   0  0  2  0  0  0  0  0  0  0  0  0
   20.8783   -8.8942  -16.9826 N   0  0  0  0  0  0  0  0  0  0  0  0
   21.0776   -6.4752  -17.0329 C   0  0  0  0  0  0  0  0  0  0  0  0
   21.0962   -6.0182  -18.1881 O   0  0  0  0  0  0  0  0  0  0  0  0
   18.3858   -4.4376  -15.6274 C   0  0  0  0  0  0  0  0  0  0  0  0
   19.7584   -4.4911  -16.2525 C   0  0  2  0  0  0  0  0  0  0  0  0
   20.4326   -5.7540  -15.9955 N   0  0  0  0  0  0  0  0  0  0  0  0
   20.5962   -3.3370  -15.7925 C   0  0  0  0  0  0  0  0  0  0  0  0
   21.3424   -3.4861  -14.6362 O   0  0  0  0  0  0  0  0  0  0  0  0
   20.5910   -2.2877  -16.4653 O   0  0  0  0  0  0  0  0  0  0  0  0
  2  1  1  1
  2  7  1  0
  3  4  1  0
  3  2  1  0
  4  5  1  0
  5  9  1  0
  6  5  2  0
  7  8  2  0
 10 11  1  0
 11 12  2  0
 14 13  1  6
 13 11  1  0
 15  7  1  0
 15 14  1  0
 16 14  1  0
 16 17  2  0
 19 18  1  1
 19 20  1  0
 19 21  1  0
 20 16  1  0
 21 22  1  0
 23 21  2  0
M  END
$$$$
