ENA.pdb
     RDKit          3D

 23 22  0  0  1  0  0  0  0  0999 V2000
   15.1779  -11.0657  -13.3160 N   0  0  0  0  0  0  0  0  0  0  0  0
   16.5932  -10.7987  -13.4919 C   0  0  1  0  0  0  0  0  0  0  0  0
   16.9863  -11.1801  -14.8781 C   0  0  0  0  0  0  0  0  0  0  0  0
   15.7929  -11.8385  -15.5562 C   0  0  0  0  0  0  0  0  0  0  0  0
   16.0701  -12.1782  -16.9540 C   0  0  0  0  0  0  0  0  0  0  0  0
   16.4888  -13.3239  -17.2434 O   0  0  0  0  0  0  0  0  0  0  0  0
   16.8540   -9.3645  -13.1643 C   0  0  0  0  0  0  0  0  0  0  0  0
   16.4864   -8.4175  -13.8960 O   0  0  0  0  0  0  0  0  0  0  0  0
   15.8901  -11.2806  -17.9955 O   0  0  0  0  0  0  0  0  0  0  0  0
   18.4058   -5.0450  -10.5704 N   0  0  0  0  0  0  0  0  0  0  0  0
   17.9142   -6.0481   -9.6927 C   0  0  0  0  0  0  0  0  0  0  0  0
   17.7249   -5.7164   -8.5009 O   0  0  0  0  0  0  0  0  0  0  0  0
   17.6365   -7.4124  -10.1452 C   0  0  0  0  0  0  0  0  0  0  0  0
   17.8850   -7.6558  -11.6103 C   0  0  2  0  0  0  0  0  0  0  0  0
   17.5561   -8.9992  -11.9640 N   0  0  0  0  0  0  0  0  0  0  0  0
   19.3183   -7.3308  -11.8970 C   0  0  0  0  0  0  0  0  0  0  0  0
   20.2584   -7.8567  -11.2780 O   0  0  0  0  0  0  0  0  0  0  0  0
   21.2599   -6.4047  -14.7217 C   0  0  0  0  0  0  0  0  0  0  0  0
   20.9445   -6.0308  -13.2940 C   0  0  2  0  0  0  0  0  0  0  0  0
   19.5842   -6.3837  -12.9191 N   0  0  0  0  0  0  0  0  0  0  0  0
   21.2007   -4.5734  -13.0582 C   0  0  0  0  0  0  0  0  0  0  0  0
   20.1175   -3.7463  -12.8168 O   0  0  0  0  0  0  0  0  0  0  0  0
   22.3762   -4.1597  -13.0880 O   0  0  0  0  0  0  0  0  0  0  0  0
  2  1  1  6
  2  7  1  0
  3  4  1  0
  3  2  1  0
  4  5  1  0
  5  9  1  0
  6  5  2  0
  7  8  2  0
 10 11  1  0
 11 12  2  0
 14 13  1  1
 13 11  1  0
 15  7  1  0
 15 14  1  0
 16 14  1  0
 16 17  2  0
 19 18  1  6
 19 20  1  0
 19 21  1  0
 20 16  1  0
 21 22  1  0
 23 21  2  0
M  END
$$$$
