ENA.pdb
     RDKit          3D

 23 22  0  0  1  0  0  0  0  0999 V2000
   14.6752  -10.5754  -15.5051 N   0  0  0  0  0  0  0  0  0  0  0  0
   15.9561  -10.4153  -14.8425 C   0  0  1  0  0  0  0  0  0  0  0  0
   16.7262  -11.6849  -14.9707 C   0  0  0  0  0  0  0  0  0  0  0  0
   15.9767  -12.7831  -14.2293 C   0  0  0  0  0  0  0  0  0  0  0  0
   16.6889  -14.0627  -14.2707 C   0  0  0  0  0  0  0  0  0  0  0  0
   16.7062  -14.7968  -13.2546 O   0  0  0  0  0  0  0  0  0  0  0  0
   16.6509   -9.2274  -15.4245 C   0  0  0  0  0  0  0  0  0  0  0  0
   16.5684   -8.9103  -16.6328 O   0  0  0  0  0  0  0  0  0  0  0  0
   17.3587  -14.5139  -15.3978 O   0  0  0  0  0  0  0  0  0  0  0  0
   18.5130   -4.6297  -17.0627 N   0  0  0  0  0  0  0  0  0  0  0  0
   18.2352   -4.8803  -15.6922 C   0  0  0  0  0  0  0  0  0  0  0  0
   18.6755   -4.0525  -14.8633 O   0  0  0  0  0  0  0  0  0  0  0  0
   17.4705   -6.0487  -15.2524 C   0  0  0  0  0  0  0  0  0  0  0  0
   18.2746   -7.3139  -15.1098 C   0  0  2  0  0  0  0  0  0  0  0  0
   17.4651   -8.3744  -14.6020 N   0  0  0  0  0  0  0  0  0  0  0  0
   19.4445   -7.0213  -14.2223 C   0  0  0  0  0  0  0  0  0  0  0  0
   19.3285   -6.8645  -12.9952 O   0  0  0  0  0  0  0  0  0  0  0  0
   23.1825   -6.8642  -14.8395 C   0  0  0  0  0  0  0  0  0  0  0  0
   21.9153   -6.6298  -14.0542 C   0  0  2  0  0  0  0  0  0  0  0  0
   20.7220   -6.9255  -14.8315 N   0  0  0  0  0  0  0  0  0  0  0  0
   21.8714   -5.2291  -13.5234 C   0  0  0  0  0  0  0  0  0  0  0  0
   21.2713   -4.2513  -14.2978 O   0  0  0  0  0  0  0  0  0  0  0  0
   22.3753   -4.9957  -12.4075 O   0  0  0  0  0  0  0  0  0  0  0  0
  2  1  1  6
  2  7  1  0
  3  4  1  0
  3  2  1  0
  4  5  1  0
  5  9  1  0
  6  5  2  0
  7  8  2  0
 10 11  1  0
 11 12  2  0
 14 13  1  1
 13 11  1  0
 15  7  1  0
 15 14  1  0
 16 14  1  0
 16 17  2  0
 19 18  1  6
 19 20  1  0
 19 21  1  0
 20 16  1  0
 21 22  1  0
 23 21  2  0
M  END
$$$$
