ENA.pdb
     RDKit          3D

 23 22  0  0  1  0  0  0  0  0999 V2000
   15.0634   -9.9857  -16.0991 N   0  0  0  0  0  0  0  0  0  0  0  0
   16.0608   -9.7781  -15.0658 C   0  0  1  0  0  0  0  0  0  0  0  0
   16.7373  -11.0756  -14.7823 C   0  0  0  0  0  0  0  0  0  0  0  0
   17.5908  -11.4501  -15.9860 C   0  0  0  0  0  0  0  0  0  0  0  0
   18.1511  -12.7984  -15.8677 C   0  0  0  0  0  0  0  0  0  0  0  0
   17.8245  -13.6815  -16.6955 O   0  0  0  0  0  0  0  0  0  0  0  0
   16.9919   -8.6971  -15.5097 C   0  0  0  0  0  0  0  0  0  0  0  0
   17.6358   -8.7460  -16.5822 O   0  0  0  0  0  0  0  0  0  0  0  0
   19.0423  -13.1569  -14.8676 O   0  0  0  0  0  0  0  0  0  0  0  0
   16.3801   -5.4892  -17.1541 N   0  0  0  0  0  0  0  0  0  0  0  0
   16.5072   -4.7234  -15.9643 C   0  0  0  0  0  0  0  0  0  0  0  0
   15.8210   -3.6798  -15.8850 O   0  0  0  0  0  0  0  0  0  0  0  0
   17.3956   -5.1224  -14.8713 C   0  0  0  0  0  0  0  0  0  0  0  0
   18.0718   -6.4546  -15.0598 C   0  0  2  0  0  0  0  0  0  0  0  0
   17.1943   -7.5232  -14.7046 N   0  0  0  0  0  0  0  0  0  0  0  0
   19.3257   -6.4573  -14.2415 C   0  0  0  0  0  0  0  0  0  0  0  0
   19.3149   -6.5726  -13.0045 O   0  0  0  0  0  0  0  0  0  0  0  0
   23.0103   -6.3985  -15.1318 C   0  0  0  0  0  0  0  0  0  0  0  0
   21.8225   -6.2293  -14.2164 C   0  0  2  0  0  0  0  0  0  0  0  0
   20.5585   -6.3220  -14.9302 N   0  0  0  0  0  0  0  0  0  0  0  0
   21.9141   -4.9382  -13.4614 C   0  0  0  0  0  0  0  0  0  0  0  0
   22.6618   -4.9094  -12.2969 O   0  0  0  0  0  0  0  0  0  0  0  0
   21.3155   -3.9400  -13.9075 O   0  0  0  0  0  0  0  0  0  0  0  0
  2  1  1  6
  2  7  1  0
  3  4  1  0
  3  2  1  0
  4  5  1  0
  5  9  1  0
  6  5  2  0
  7  8  2  0
 10 11  1  0
 11 12  2  0
 14 13  1  1
 13 11  1  0
 15  7  1  0
 15 14  1  0
 16 14  1  0
 16 17  2  0
 19 18  1  6
 19 20  1  0
 19 21  1  0
 20 16  1  0
 21 22  1  0
 23 21  2  0
M  END
$$$$
