ENA.pdb
     RDKit          3D

 23 22  0  0  1  0  0  0  0  0999 V2000
   20.3710  -10.2827  -16.8305 N   0  0  0  0  0  0  0  0  0  0  0  0
   19.0420   -9.9411  -16.3587 C   0  0  1  0  0  0  0  0  0  0  0  0
   18.5628  -11.0192  -15.4479 C   0  0  0  0  0  0  0  0  0  0  0  0
   17.3237  -11.6564  -16.0612 C   0  0  0  0  0  0  0  0  0  0  0  0
   16.7759  -12.7219  -15.2183 C   0  0  0  0  0  0  0  0  0  0  0  0
   17.2405  -13.8831  -15.3051 O   0  0  0  0  0  0  0  0  0  0  0  0
   19.0930   -8.5911  -15.7204 C   0  0  0  0  0  0  0  0  0  0  0  0
   18.0756   -7.9913  -15.3053 O   0  0  0  0  0  0  0  0  0  0  0  0
   15.7494  -12.5095  -14.3106 O   0  0  0  0  0  0  0  0  0  0  0  0
   20.9613   -4.2467  -13.4218 N   0  0  0  0  0  0  0  0  0  0  0  0
   21.9024   -5.3087  -13.3533 C   0  0  0  0  0  0  0  0  0  0  0  0
   22.9017   -5.1351  -12.6202 O   0  0  0  0  0  0  0  0  0  0  0  0
   21.7267   -6.5558  -14.0998 C   0  0  0  0  0  0  0  0  0  0  0  0
   20.4733   -6.6239  -14.9315 C   0  0  2  0  0  0  0  0  0  0  0  0
   20.3444   -7.9040  -15.5503 N   0  0  0  0  0  0  0  0  0  0  0  0
   20.5225   -5.5136  -15.9349 C   0  0  0  0  0  0  0  0  0  0  0  0
   21.0296   -5.6535  -17.0604 O   0  0  0  0  0  0  0  0  0  0  0  0
   18.9708   -3.6948  -17.7399 C   0  0  0  0  0  0  0  0  0  0  0  0
   19.7378   -3.2090  -16.5344 C   0  0  2  0  0  0  0  0  0  0  0  0
   19.9612   -4.2658  -15.5602 N   0  0  0  0  0  0  0  0  0  0  0  0
   19.0470   -2.0393  -15.9019 C   0  0  0  0  0  0  0  0  0  0  0  0
   19.5761   -0.7762  -16.1029 O   0  0  0  0  0  0  0  0  0  0  0  0
   18.0242   -2.2452  -15.2198 O   0  0  0  0  0  0  0  0  0  0  0  0
  2  1  1  1
  2  7  1  0
  3  4  1  0
  3  2  1  0
  4  5  1  0
  5  9  1  0
  6  5  2  0
  7  8  2  0
 10 11  1  0
 11 12  2  0
 14 13  1  6
 13 11  1  0
 15  7  1  0
 15 14  1  0
 16 14  1  0
 16 17  2  0
 19 18  1  6
 19 20  1  0
 19 21  1  0
 20 16  1  0
 21 22  1  0
 23 21  2  0
M  END
$$$$
