ENA.pdb
     RDKit          3D

 23 22  0  0  1  0  0  0  0  0999 V2000
   19.9091  -11.3532  -15.7543 N   0  0  0  0  0  0  0  0  0  0  0  0
   19.0595  -10.1806  -15.6617 C   0  0  1  0  0  0  0  0  0  0  0  0
   17.6411  -10.6222  -15.5417 C   0  0  0  0  0  0  0  0  0  0  0  0
   17.1893  -11.1715  -16.8877 C   0  0  0  0  0  0  0  0  0  0  0  0
   15.7871  -11.5954  -16.8686 C   0  0  0  0  0  0  0  0  0  0  0  0
   14.9222  -10.9070  -17.4601 O   0  0  0  0  0  0  0  0  0  0  0  0
   19.5278   -9.3395  -14.5189 C   0  0  0  0  0  0  0  0  0  0  0  0
   19.7373   -9.7974  -13.3728 O   0  0  0  0  0  0  0  0  0  0  0  0
   15.3572  -12.7416  -16.2174 O   0  0  0  0  0  0  0  0  0  0  0  0
   21.9248   -5.4387  -11.7858 N   0  0  0  0  0  0  0  0  0  0  0  0
   21.5605   -5.0577  -13.1051 C   0  0  0  0  0  0  0  0  0  0  0  0
   21.6100   -3.8372  -13.3774 O   0  0  0  0  0  0  0  0  0  0  0  0
   21.1439   -6.0352  -14.1122 C   0  0  0  0  0  0  0  0  0  0  0  0
   20.1445   -7.0532  -13.6302 C   0  0  2  0  0  0  0  0  0  0  0  0
   19.7647   -7.9317  -14.6894 N   0  0  0  0  0  0  0  0  0  0  0  0
   18.9725   -6.3170  -13.0589 C   0  0  0  0  0  0  0  0  0  0  0  0
   18.1553   -5.7090  -13.7703 O   0  0  0  0  0  0  0  0  0  0  0  0
   17.6045   -5.9969   -9.5314 C   0  0  0  0  0  0  0  0  0  0  0  0
   17.6812   -5.6828  -11.0055 C   0  0  2  0  0  0  0  0  0  0  0  0
   18.8129   -6.3310  -11.6494 N   0  0  0  0  0  0  0  0  0  0  0  0
   17.7166   -4.2019  -11.2314 C   0  0  0  0  0  0  0  0  0  0  0  0
   16.6175   -3.4523  -10.8494 O   0  0  0  0  0  0  0  0  0  0  0  0
   18.7312   -3.7000  -11.7534 O   0  0  0  0  0  0  0  0  0  0  0  0
  2  1  1  1
  2  7  1  0
  3  4  1  0
  3  2  1  0
  4  5  1  0
  5  9  1  0
  6  5  2  0
  7  8  2  0
 10 11  1  0
 11 12  2  0
 14 13  1  6
 13 11  1  0
 15  7  1  0
 15 14  1  0
 16 14  1  0
 16 17  2  0
 19 18  1  1
 19 20  1  0
 19 21  1  0
 20 16  1  0
 21 22  1  0
 23 21  2  0
M  END
$$$$
