ENA.pdb
     RDKit          3D

 23 22  0  0  1  0  0  0  0  0999 V2000
   18.9064  -12.4089  -15.6161 N   0  0  0  0  0  0  0  0  0  0  0  0
   19.8292  -12.4944  -16.7327 C   0  0  1  0  0  0  0  0  0  0  0  0
   19.2552  -13.4060  -17.7627 C   0  0  0  0  0  0  0  0  0  0  0  0
   18.8227  -14.6965  -17.0805 C   0  0  0  0  0  0  0  0  0  0  0  0
   19.2751  -15.8845  -17.8086 C   0  0  0  0  0  0  0  0  0  0  0  0
   18.4449  -16.7640  -18.1387 O   0  0  0  0  0  0  0  0  0  0  0  0
   20.1025  -11.1139  -17.2345 C   0  0  0  0  0  0  0  0  0  0  0  0
   20.5090  -10.8751  -18.3942 O   0  0  0  0  0  0  0  0  0  0  0  0
   20.6006  -16.0917  -18.1592 O   0  0  0  0  0  0  0  0  0  0  0  0
   18.0577   -6.0859  -18.6554 N   0  0  0  0  0  0  0  0  0  0  0  0
   19.1959   -6.8960  -18.3978 C   0  0  0  0  0  0  0  0  0  0  0  0
   20.3167   -6.3916  -18.6336 O   0  0  0  0  0  0  0  0  0  0  0  0
   19.0809   -8.2606  -17.8801 C   0  0  0  0  0  0  0  0  0  0  0  0
   20.0831   -8.6197  -16.8151 C   0  0  2  0  0  0  0  0  0  0  0  0
   19.9055   -9.9697  -16.3864 N   0  0  0  0  0  0  0  0  0  0  0  0
   19.9314   -7.6445  -15.6890 C   0  0  0  0  0  0  0  0  0  0  0  0
   18.9232   -7.6147  -14.9635 O   0  0  0  0  0  0  0  0  0  0  0  0
   22.3173   -5.3019  -13.9601 C   0  0  0  0  0  0  0  0  0  0  0  0
   20.9428   -5.7552  -14.3875 C   0  0  2  0  0  0  0  0  0  0  0  0
   20.9941   -6.7322  -15.4638 N   0  0  0  0  0  0  0  0  0  0  0  0
   20.0933   -4.5825  -14.7729 C   0  0  0  0  0  0  0  0  0  0  0  0
   19.5417   -3.8110  -13.7647 O   0  0  0  0  0  0  0  0  0  0  0  0
   19.9144   -4.3449  -15.9833 O   0  0  0  0  0  0  0  0  0  0  0  0
  2  1  1  1
  2  7  1  0
  3  4  1  0
  3  2  1  0
  4  5  1  0
  5  9  1  0
  6  5  2  0
  7  8  2  0
 10 11  1  0
 11 12  2  0
 14 13  1  6
 13 11  1  0
 15  7  1  0
 15 14  1  0
 16 14  1  0
 16 17  2  0
 19 18  1  6
 19 20  1  0
 19 21  1  0
 20 16  1  0
 21 22  1  0
 23 21  2  0
M  END
$$$$
