ENA.pdb
     RDKit          3D

 23 22  0  0  1  0  0  0  0  0999 V2000
   14.7991  -17.0495    3.2669 N   0  0  0  0  0  0  0  0  0  0  0  0
   15.9185  -17.3186    4.1501 C   0  0  1  0  0  0  0  0  0  0  0  0
   17.0383  -17.8877    3.3479 C   0  0  0  0  0  0  0  0  0  0  0  0
   16.6297  -19.2699    2.8579 C   0  0  0  0  0  0  0  0  0  0  0  0
   17.1221  -20.3348    3.7351 C   0  0  0  0  0  0  0  0  0  0  0  0
   17.6724  -20.0391    4.8221 O   0  0  0  0  0  0  0  0  0  0  0  0
   16.2728  -16.0589    4.8712 C   0  0  0  0  0  0  0  0  0  0  0  0
   16.0854  -14.9187    4.3895 O   0  0  0  0  0  0  0  0  0  0  0  0
   17.0094  -21.6804    3.4201 O   0  0  0  0  0  0  0  0  0  0  0  0
   17.2007  -12.7708    8.8295 N   0  0  0  0  0  0  0  0  0  0  0  0
   17.0717  -14.0950    9.3276 C   0  0  0  0  0  0  0  0  0  0  0  0
   17.0162  -14.2310   10.5705 O   0  0  0  0  0  0  0  0  0  0  0  0
   17.0054  -15.2585    8.4416 C   0  0  0  0  0  0  0  0  0  0  0  0
   17.1282  -14.9439    6.9741 C   0  0  2  0  0  0  0  0  0  0  0  0
   16.8591  -16.1015    6.1832 N   0  0  0  0  0  0  0  0  0  0  0  0
   18.5018  -14.4000    6.7306 C   0  0  0  0  0  0  0  0  0  0  0  0
   19.5150  -15.1190    6.7368 O   0  0  0  0  0  0  0  0  0  0  0  0
   19.7457  -11.1023    5.4068 C   0  0  0  0  0  0  0  0  0  0  0  0
   19.9029  -12.4005    6.1601 C   0  0  2  0  0  0  0  0  0  0  0  0
   18.6220  -13.0079    6.4857 N   0  0  0  0  0  0  0  0  0  0  0  0
   20.7268  -12.2006    7.3956 C   0  0  0  0  0  0  0  0  0  0  0  0
   22.0350  -11.7722    7.2511 O   0  0  0  0  0  0  0  0  0  0  0  0
   20.2062  -12.4267    8.5054 O   0  0  0  0  0  0  0  0  0  0  0  0
  2  1  1  6
  2  7  1  0
  3  4  1  0
  3  2  1  0
  4  5  1  0
  5  9  1  0
  6  5  2  0
  7  8  2  0
 10 11  1  0
 11 12  2  0
 14 13  1  1
 13 11  1  0
 15  7  1  0
 15 14  1  0
 16 14  1  0
 16 17  2  0
 19 18  1  1
 19 20  1  0
 19 21  1  0
 20 16  1  0
 21 22  1  0
 23 21  2  0
M  END
$$$$
