ENA.pdb
     RDKit          3D

 23 22  0  0  1  0  0  0  0  0999 V2000
   20.3436  -11.5772  -15.4549 N   0  0  0  0  0  0  0  0  0  0  0  0
   19.2290  -10.8325  -16.0104 C   0  0  1  0  0  0  0  0  0  0  0  0
   17.9830  -11.2241  -15.2923 C   0  0  0  0  0  0  0  0  0  0  0  0
   16.9072  -11.5356  -16.3234 C   0  0  0  0  0  0  0  0  0  0  0  0
   15.5572  -11.4067  -15.7693 C   0  0  0  0  0  0  0  0  0  0  0  0
   14.7571  -10.5810  -16.2691 O   0  0  0  0  0  0  0  0  0  0  0  0
   19.5394   -9.3733  -15.9273 C   0  0  0  0  0  0  0  0  0  0  0  0
   18.8178   -8.4896  -16.4425 O   0  0  0  0  0  0  0  0  0  0  0  0
   15.1085  -12.1654  -14.6989 O   0  0  0  0  0  0  0  0  0  0  0  0
   21.9047   -4.8644  -14.4913 N   0  0  0  0  0  0  0  0  0  0  0  0
   22.1039   -5.8867  -13.5252 C   0  0  0  0  0  0  0  0  0  0  0  0
   22.5843   -5.5399  -12.4228 O   0  0  0  0  0  0  0  0  0  0  0  0
   21.7682   -7.2867  -13.7905 C   0  0  0  0  0  0  0  0  0  0  0  0
   21.0603   -7.5308  -15.0970 C   0  0  2  0  0  0  0  0  0  0  0  0
   20.7100   -8.9079  -15.2343 N   0  0  0  0  0  0  0  0  0  0  0  0
   21.9546   -7.0622  -16.2027 C   0  0  0  0  0  0  0  0  0  0  0  0
   22.8271   -7.7881  -16.7082 O   0  0  0  0  0  0  0  0  0  0  0  0
   22.2309   -6.1527  -19.0549 C   0  0  0  0  0  0  0  0  0  0  0  0
   22.4562   -5.2530  -17.8644 C   0  0  2  0  0  0  0  0  0  0  0  0
   21.7770   -5.7354  -16.6721 N   0  0  0  0  0  0  0  0  0  0  0  0
   22.0469   -3.8459  -18.1778 C   0  0  0  0  0  0  0  0  0  0  0  0
   22.9323   -3.0442  -18.8772 O   0  0  0  0  0  0  0  0  0  0  0  0
   20.9277   -3.4494  -17.7985 O   0  0  0  0  0  0  0  0  0  0  0  0
  2  1  1  1
  2  7  1  0
  3  4  1  0
  3  2  1  0
  4  5  1  0
  5  9  1  0
  6  5  2  0
  7  8  2  0
 10 11  1  0
 11 12  2  0
 14 13  1  1
 13 11  1  0
 15  7  1  0
 15 14  1  0
 16 14  1  0
 16 17  2  0
 19 18  1  6
 19 20  1  0
 19 21  1  0
 20 16  1  0
 21 22  1  0
 23 21  2  0
M  END
$$$$
