NGA.pdb
     RDKit          3D

 18 17  0  0  1  0  0  0  0  0999 V2000
   15.4420  -13.8031  -15.7711 N   0  0  0  0  0  0  0  0  0  0  0  0
   16.8202  -13.6135  -16.0805 C   0  0  0  0  0  0  0  0  0  0  0  0
   17.5967  -14.5617  -15.8070 O   0  0  0  0  0  0  0  0  0  0  0  0
   17.3524  -12.3735  -16.6952 C   0  0  0  0  0  0  0  0  0  0  0  0
   18.6326  -12.0038  -16.0263 C   0  0  2  0  0  0  0  0  0  0  0  0
   18.4139  -12.0258  -14.5917 N   0  0  0  0  0  0  0  0  0  0  0  0
   19.1422  -10.6766  -16.4181 C   0  0  0  0  0  0  0  0  0  0  0  0
   18.4081   -9.8211  -16.9839 O   0  0  0  0  0  0  0  0  0  0  0  0
   20.4874  -10.2792  -16.1838 N   0  0  0  0  0  0  0  0  0  0  0  0
   20.9980   -9.0061  -16.5699 C   0  0  0  0  0  0  0  0  0  0  0  0
   20.9326   -7.9778  -15.5418 C   0  0  0  0  0  0  0  0  0  0  0  0
   20.2112   -8.1481  -14.5343 O   0  0  0  0  0  0  0  0  0  0  0  0
   22.9016   -4.8560  -14.7596 C   0  0  0  0  0  0  0  0  0  0  0  0
   21.6978   -5.7881  -14.5644 C   0  0  2  0  0  0  0  0  0  0  0  0
   21.6667   -6.7734  -15.6416 N   0  0  0  0  0  0  0  0  0  0  0  0
   20.4988   -4.9524  -14.6151 C   0  0  0  0  0  0  0  0  0  0  0  0
   19.8171   -4.8809  -15.6583 O   0  0  0  0  0  0  0  0  0  0  0  0
   20.1083   -4.2326  -13.5068 O   0  0  0  0  0  0  0  0  0  0  0  0
  2  1  1  0
  3  2  2  0
  4  2  1  0
  5  4  1  0
  5  6  1  1
  7  5  1  0
  7  8  2  0
  9  7  1  0
 10  9  1  0
 11 10  1  0
 12 11  2  0
 14 13  1  6
 14 15  1  0
 14 16  1  0
 15 11  1  0
 16 18  1  0
 17 16  2  0
M  END
$$$$
