NGA.pdb
     RDKit          3D

 18 17  0  0  1  0  0  0  0  0999 V2000
   24.4555  -34.5279   -8.7682 N   0  0  0  0  0  0  0  0  0  0  0  0
   24.3052  -33.7339   -9.9421 C   0  0  0  0  0  0  0  0  0  0  0  0
   23.5644  -34.1946  -10.8453 O   0  0  0  0  0  0  0  0  0  0  0  0
   24.9729  -32.4230  -10.1280 C   0  0  0  0  0  0  0  0  0  0  0  0
   25.8288  -32.1350   -8.9415 C   0  0  2  0  0  0  0  0  0  0  0  0
   26.7992  -33.2068   -8.8154 N   0  0  0  0  0  0  0  0  0  0  0  0
   25.0718  -32.0164   -7.6816 C   0  0  0  0  0  0  0  0  0  0  0  0
   24.1471  -31.1709   -7.5365 O   0  0  0  0  0  0  0  0  0  0  0  0
   25.3352  -32.8442   -6.5556 N   0  0  0  0  0  0  0  0  0  0  0  0
   24.5416  -32.8188   -5.3723 C   0  0  0  0  0  0  0  0  0  0  0  0
   24.9955  -33.7001   -4.3064 C   0  0  0  0  0  0  0  0  0  0  0  0
   24.3651  -33.7497   -3.2272 O   0  0  0  0  0  0  0  0  0  0  0  0
   27.5048  -36.4936   -3.9901 C   0  0  0  0  0  0  0  0  0  0  0  0
   26.5964  -35.4121   -3.3890 C   0  0  2  0  0  0  0  0  0  0  0  0
   26.1417  -34.5158   -4.4483 N   0  0  0  0  0  0  0  0  0  0  0  0
   27.4002  -34.6718   -2.4171 C   0  0  0  0  0  0  0  0  0  0  0  0
   27.7660  -33.5021   -2.6537 O   0  0  0  0  0  0  0  0  0  0  0  0
   27.7632  -35.2612   -1.2255 O   0  0  0  0  0  0  0  0  0  0  0  0
  2  1  1  0
  3  2  2  0
  4  2  1  0
  5  4  1  0
  5  6  1  1
  7  5  1  0
  7  8  2  0
  9  7  1  0
 10  9  1  0
 11 10  1  0
 12 11  2  0
 14 13  1  6
 14 15  1  0
 14 16  1  0
 15 11  1  0
 16 18  1  0
 17 16  2  0
M  END
$$$$
