NGA.pdb
     RDKit          3D

 18 17  0  0  1  0  0  0  0  0999 V2000
   16.2123  -12.7263  -17.5093 N   0  0  0  0  0  0  0  0  0  0  0  0
   16.7850  -13.2148  -16.2992 C   0  0  0  0  0  0  0  0  0  0  0  0
   16.9272  -14.4587  -16.2027 O   0  0  0  0  0  0  0  0  0  0  0  0
   17.2058  -12.3321  -15.1845 C   0  0  0  0  0  0  0  0  0  0  0  0
   17.7991  -11.0837  -15.7435 C   0  0  2  0  0  0  0  0  0  0  0  0
   19.1144  -11.4049  -16.2661 N   0  0  0  0  0  0  0  0  0  0  0  0
   17.9228   -9.9949  -14.7567 C   0  0  0  0  0  0  0  0  0  0  0  0
   16.9705   -9.6753  -13.9938 O   0  0  0  0  0  0  0  0  0  0  0  0
   19.1181   -9.2399  -14.6034 N   0  0  0  0  0  0  0  0  0  0  0  0
   19.2556   -8.1913  -13.6483 C   0  0  0  0  0  0  0  0  0  0  0  0
   20.5497   -7.5250  -13.6460 C   0  0  0  0  0  0  0  0  0  0  0  0
   21.6003   -8.2029  -13.6070 O   0  0  0  0  0  0  0  0  0  0  0  0
   22.4156   -5.8367  -15.3712 C   0  0  0  0  0  0  0  0  0  0  0  0
   21.9315   -5.4459  -13.9679 C   0  0  2  0  0  0  0  0  0  0  0  0
   20.6651   -6.1163  -13.6869 N   0  0  0  0  0  0  0  0  0  0  0  0
   21.7410   -3.9961  -13.9709 C   0  0  0  0  0  0  0  0  0  0  0  0
   20.5936   -3.5055  -13.9979 O   0  0  0  0  0  0  0  0  0  0  0  0
   22.8312   -3.1537  -13.9438 O   0  0  0  0  0  0  0  0  0  0  0  0
  2  1  1  0
  3  2  2  0
  4  2  1  0
  5  4  1  0
  5  6  1  1
  7  5  1  0
  7  8  2  0
  9  7  1  0
 10  9  1  0
 11 10  1  0
 12 11  2  0
 14 13  1  6
 14 15  1  0
 14 16  1  0
 15 11  1  0
 16 18  1  0
 17 16  2  0
M  END
$$$$
