NGA.pdb
     RDKit          3D

 18 17  0  0  1  0  0  0  0  0999 V2000
   19.0823  -10.5018  -16.9772 N   0  0  0  0  0  0  0  0  0  0  0  0
   19.2184  -10.7923  -15.5886 C   0  0  0  0  0  0  0  0  0  0  0  0
   18.6638  -11.8394  -15.1730 O   0  0  0  0  0  0  0  0  0  0  0  0
   19.9692   -9.9274  -14.6468 C   0  0  0  0  0  0  0  0  0  0  0  0
   20.5623   -8.7833  -15.3968 C   0  0  2  0  0  0  0  0  0  0  0  0
   21.8514   -9.2038  -15.9143 N   0  0  0  0  0  0  0  0  0  0  0  0
   20.7415   -7.5698  -14.5784 C   0  0  0  0  0  0  0  0  0  0  0  0
   19.7597   -6.9100  -14.1405 O   0  0  0  0  0  0  0  0  0  0  0  0
   22.0268   -7.0688  -14.2327 N   0  0  0  0  0  0  0  0  0  0  0  0
   22.2161   -5.8820  -13.4671 C   0  0  0  0  0  0  0  0  0  0  0  0
   21.9806   -4.6393  -14.1875 C   0  0  0  0  0  0  0  0  0  0  0  0
   22.6726   -4.3593  -15.1912 O   0  0  0  0  0  0  0  0  0  0  0  0
   19.2601   -2.0377  -14.2120 C   0  0  0  0  0  0  0  0  0  0  0  0
   20.6765   -2.5183  -14.5569 C   0  0  2  0  0  0  0  0  0  0  0  0
   20.9817   -3.7216  -13.7881 N   0  0  0  0  0  0  0  0  0  0  0  0
   21.5941   -1.4414  -14.1873 C   0  0  0  0  0  0  0  0  0  0  0  0
   22.1814   -1.4563  -13.0860 O   0  0  0  0  0  0  0  0  0  0  0  0
   21.8203   -0.3951  -15.0551 O   0  0  0  0  0  0  0  0  0  0  0  0
  2  1  1  0
  3  2  2  0
  4  2  1  0
  5  4  1  0
  5  6  1  1
  7  5  1  0
  7  8  2  0
  9  7  1  0
 10  9  1  0
 11 10  1  0
 12 11  2  0
 14 13  1  1
 14 15  1  0
 14 16  1  0
 15 11  1  0
 16 18  1  0
 17 16  2  0
M  END
$$$$
