NGA.pdb
     RDKit          3D

 18 17  0  0  1  0  0  0  0  0999 V2000
   24.4031  -20.0088   -8.2586 N   0  0  0  0  0  0  0  0  0  0  0  0
   24.6549  -21.3514   -8.6653 C   0  0  0  0  0  0  0  0  0  0  0  0
   24.1622  -22.2600   -7.9523 O   0  0  0  0  0  0  0  0  0  0  0  0
   25.4539  -21.7013   -9.8644 C   0  0  0  0  0  0  0  0  0  0  0  0
   26.0675  -20.4632  -10.4245 C   0  0  2  0  0  0  0  0  0  0  0  0
   24.9953  -19.5724  -10.8289 N   0  0  0  0  0  0  0  0  0  0  0  0
   26.9517  -20.7117  -11.5782 C   0  0  0  0  0  0  0  0  0  0  0  0
   27.9124  -21.5268  -11.5184 O   0  0  0  0  0  0  0  0  0  0  0  0
   26.7780  -20.0510  -12.8255 N   0  0  0  0  0  0  0  0  0  0  0  0
   27.6720  -20.2181  -13.9224 C   0  0  0  0  0  0  0  0  0  0  0  0
   27.3826  -19.3920  -15.0853 C   0  0  0  0  0  0  0  0  0  0  0  0
   26.6309  -18.3985  -14.9733 O   0  0  0  0  0  0  0  0  0  0  0  0
   28.5819  -19.2710  -18.6798 C   0  0  0  0  0  0  0  0  0  0  0  0
   27.6790  -18.8276  -17.5204 C   0  0  2  0  0  0  0  0  0  0  0  0
   27.9289  -19.6758  -16.3583 N   0  0  0  0  0  0  0  0  0  0  0  0
   26.2969  -18.9888  -17.9704 C   0  0  0  0  0  0  0  0  0  0  0  0
   25.6431  -20.0069  -17.6639 O   0  0  0  0  0  0  0  0  0  0  0  0
   25.7006  -18.0141  -18.7405 O   0  0  0  0  0  0  0  0  0  0  0  0
  2  1  1  0
  3  2  2  0
  4  2  1  0
  5  4  1  0
  5  6  1  6
  7  5  1  0
  7  8  2  0
  9  7  1  0
 10  9  1  0
 11 10  1  0
 12 11  2  0
 14 13  1  6
 14 15  1  0
 14 16  1  0
 15 11  1  0
 16 18  1  0
 17 16  2  0
M  END
$$$$
