NGA.pdb
     RDKit          3D

 18 17  0  0  1  0  0  0  0  0999 V2000
   24.5341  -20.9167   -7.4199 N   0  0  0  0  0  0  0  0  0  0  0  0
   24.2871  -21.1751   -8.7995 C   0  0  0  0  0  0  0  0  0  0  0  0
   23.0878  -21.3215   -9.1415 O   0  0  0  0  0  0  0  0  0  0  0  0
   25.3644  -21.2741   -9.8137 C   0  0  0  0  0  0  0  0  0  0  0  0
   24.9866  -20.4708  -11.0117 C   0  0  2  0  0  0  0  0  0  0  0  0
   23.9737  -21.2064  -11.7461 N   0  0  0  0  0  0  0  0  0  0  0  0
   26.1198  -20.1798  -11.9093 C   0  0  0  0  0  0  0  0  0  0  0  0
   27.0206  -19.3531  -11.5992 O   0  0  0  0  0  0  0  0  0  0  0  0
   26.2681  -20.8100  -13.1755 N   0  0  0  0  0  0  0  0  0  0  0  0
   27.3437  -20.5205  -14.0642 C   0  0  0  0  0  0  0  0  0  0  0  0
   27.0639  -19.4938  -15.0573 C   0  0  0  0  0  0  0  0  0  0  0  0
   25.9025  -19.0464  -15.1818 O   0  0  0  0  0  0  0  0  0  0  0  0
   29.1137  -17.3985  -17.4538 C   0  0  0  0  0  0  0  0  0  0  0  0
   27.7924  -17.9788  -16.9307 C   0  0  2  0  0  0  0  0  0  0  0  0
   28.0734  -18.9748  -15.9006 N   0  0  0  0  0  0  0  0  0  0  0  0
   27.1236  -18.6093  -18.0681 C   0  0  0  0  0  0  0  0  0  0  0  0
   27.2769  -19.8259  -18.3014 O   0  0  0  0  0  0  0  0  0  0  0  0
   26.3142  -17.8631  -18.8970 O   0  0  0  0  0  0  0  0  0  0  0  0
  2  1  1  0
  3  2  2  0
  4  2  1  0
  5  4  1  0
  5  6  1  6
  7  5  1  0
  7  8  2  0
  9  7  1  0
 10  9  1  0
 11 10  1  0
 12 11  2  0
 14 13  1  6
 14 15  1  0
 14 16  1  0
 15 11  1  0
 16 18  1  0
 17 16  2  0
M  END
$$$$
