NGA.pdb
     RDKit          3D

 18 17  0  0  1  0  0  0  0  0999 V2000
   24.5924  -20.1585   -8.7283 N   0  0  0  0  0  0  0  0  0  0  0  0
   25.5302  -21.0643   -9.3037 C   0  0  0  0  0  0  0  0  0  0  0  0
   25.4423  -22.2671   -8.9540 O   0  0  0  0  0  0  0  0  0  0  0  0
   26.5741  -20.6481  -10.2712 C   0  0  0  0  0  0  0  0  0  0  0  0
   25.9581  -20.4870  -11.6194 C   0  0  2  0  0  0  0  0  0  0  0  0
   25.5089  -21.7921  -12.0682 N   0  0  0  0  0  0  0  0  0  0  0  0
   26.8759  -19.9190  -12.6242 C   0  0  0  0  0  0  0  0  0  0  0  0
   27.3029  -18.7349  -12.5431 O   0  0  0  0  0  0  0  0  0  0  0  0
   27.3354  -20.6668  -13.7432 N   0  0  0  0  0  0  0  0  0  0  0  0
   28.1771  -20.1147  -14.7517 C   0  0  0  0  0  0  0  0  0  0  0  0
   27.5423  -19.1273  -15.6124 C   0  0  0  0  0  0  0  0  0  0  0  0
   26.3003  -18.9814  -15.5839 O   0  0  0  0  0  0  0  0  0  0  0  0
   28.7339  -16.2966  -17.8039 C   0  0  0  0  0  0  0  0  0  0  0  0
   27.6659  -17.2927  -17.3312 C   0  0  2  0  0  0  0  0  0  0  0  0
   28.2902  -18.3134  -16.4942 N   0  0  0  0  0  0  0  0  0  0  0  0
   27.0958  -17.9072  -18.5295 C   0  0  0  0  0  0  0  0  0  0  0  0
   26.1204  -17.3864  -19.1086 O   0  0  0  0  0  0  0  0  0  0  0  0
   27.6323  -19.0723  -19.0331 O   0  0  0  0  0  0  0  0  0  0  0  0
  2  1  1  0
  3  2  2  0
  4  2  1  0
  5  4  1  0
  5  6  1  6
  7  5  1  0
  7  8  2  0
  9  7  1  0
 10  9  1  0
 11 10  1  0
 12 11  2  0
 14 13  1  6
 14 15  1  0
 14 16  1  0
 15 11  1  0
 16 18  1  0
 17 16  2  0
M  END
$$$$
