WRY.pdb
     RDKit          3D

 38 40  0  0  1  0  0  0  0  0999 V2000
    6.4903  -17.8718   24.8614 N   0  0  0  0  0  0  0  0  0  0  0  0
    6.8760  -16.5948   24.3132 C   0  0  1  0  0  0  0  0  0  0  0  0
    7.5390  -15.6997   25.2924 C   0  0  0  0  0  0  0  0  0  0  0  0
    6.6720  -14.7188   25.9566 C   0  0  0  0  0  0  0  0  0  0  0  0
    5.5500  -14.9795   26.7610 C   0  0  0  0  0  0  0  0  0  0  0  0
    5.0667  -13.8087   27.1845 N   0  0  0  0  0  0  0  0  0  0  0  0
    5.7919  -12.7913   26.7148 C   0  0  0  0  0  0  0  0  0  0  0  0
    5.7180  -11.4265   26.8445 C   0  0  0  0  0  0  0  0  0  0  0  0
    6.6149  -10.5959   26.2318 C   0  0  0  0  0  0  0  0  0  0  0  0
    7.6072  -11.1349   25.4730 C   0  0  0  0  0  0  0  0  0  0  0  0
    7.6993  -12.5111   25.3292 C   0  0  0  0  0  0  0  0  0  0  0  0
    6.7997  -13.3486   25.9444 C   0  0  0  0  0  0  0  0  0  0  0  0
    7.7597  -16.8203   23.1214 C   0  0  0  0  0  0  0  0  0  0  0  0
    8.7967  -17.5356   23.2001 O   0  0  0  0  0  0  0  0  0  0  0  0
    9.8533  -14.3840   16.4504 N   0  0  0  0  0  0  0  0  0  0  0  0
    8.4312  -14.4562   16.4622 C   0  0  0  0  0  0  0  0  0  0  0  0
    7.8089  -15.1809   15.5743 N   0  0  0  0  0  0  0  0  0  0  0  0
    7.6653  -13.7502   17.4282 N   0  0  0  0  0  0  0  0  0  0  0  0
    8.3079  -12.9311   18.4282 C   0  0  0  0  0  0  0  0  0  0  0  0
    8.9442  -13.8315   19.4510 C   0  0  0  0  0  0  0  0  0  0  0  0
    7.9321  -14.4242   20.3752 C   0  0  0  0  0  0  0  0  0  0  0  0
    8.5022  -15.6452   21.0605 C   0  0  2  0  0  0  0  0  0  0  0  0
    7.4832  -16.2484   21.8537 N   0  0  0  0  0  0  0  0  0  0  0  0
    9.7232  -15.3026   21.8266 C   0  0  0  0  0  0  0  0  0  0  0  0
   10.0132  -14.1069   22.0386 O   0  0  0  0  0  0  0  0  0  0  0  0
    6.7765  -15.1933   15.5346 O   0  0  0  0  0  0  0  0  0  0  0  0
   11.8294  -15.4685   30.0068 C   0  0  0  0  0  0  0  0  0  0  0  0
   11.3941  -15.6245   28.6790 C   0  0  0  0  0  0  0  0  0  0  0  0
   11.0447  -16.8778   28.2067 C   0  0  0  0  0  0  0  0  0  0  0  0
   10.6150  -17.0694   26.9149 C   0  0  0  0  0  0  0  0  0  0  0  0
   10.5269  -15.9881   26.0608 C   0  0  0  0  0  0  0  0  0  0  0  0
   10.0764  -16.1677   24.6640 C   0  0  2  0  0  0  0  0  0  0  0  0
   11.1830  -16.2726   23.6680 N   0  0  0  0  0  0  0  0  0  0  0  0
   10.5899  -16.3006   22.3375 C   0  0  0  0  0  0  0  0  0  0  0  0
   12.1341  -17.3738   23.8977 O   0  0  0  0  0  0  0  0  0  0  0  0
   12.0048  -18.5136   23.3986 C   0  0  0  0  0  0  0  0  0  0  0  0
   10.8696  -14.7320   26.5097 C   0  0  0  0  0  0  0  0  0  0  0  0
   11.2984  -14.5640   27.8113 O   0  0  0  0  0  0  0  0  0  0  0  0
  2  1  1  1
  3  2  1  0
  4  5  2  0
  4  3  1  0
  6  5  1  0
  7 12  2  0
  7  6  1  0
  8  7  1  0
  9  8  2  0
  9 10  1  0
 10 11  2  0
 11 12  1  0
 12  4  1  0
 13  2  1  0
 14 13  2  0
 16 15  1  0
 17 16  2  0
 18 16  1  0
 19 18  1  0
 19 20  1  0
 20 21  1  0
 22 21  1  1
 22 24  1  0
 22 23  1  0
 23 13  1  0
 24 33  1  0
 25 24  2  0
 26 27  1  0
 27 28  2  0
 27 37  1  0
 28 29  1  0
 29 30  2  0
 30 31  1  0
 32 34  1  0
 32 31  1  6
 33 32  1  0
 34 38  1  0
 35 34  2  0
 36 30  1  0
 37 36  2  0
M  END
$$$$
