WRY.pdb
     RDKit          3D

 38 40  0  0  1  0  0  0  0  0999 V2000
    6.6509  -18.0202   25.2593 N   0  0  0  0  0  0  0  0  0  0  0  0
    7.4992  -16.9952   24.7028 C   0  0  1  0  0  0  0  0  0  0  0  0
    8.1470  -16.1361   25.7235 C   0  0  0  0  0  0  0  0  0  0  0  0
    7.3546  -14.9963   26.2012 C   0  0  0  0  0  0  0  0  0  0  0  0
    6.2140  -15.0349   27.0207 C   0  0  0  0  0  0  0  0  0  0  0  0
    5.8192  -13.7772   27.2352 N   0  0  0  0  0  0  0  0  0  0  0  0
    6.6202  -12.9094   26.6133 C   0  0  0  0  0  0  0  0  0  0  0  0
    6.6489  -11.5405   26.5119 C   0  0  0  0  0  0  0  0  0  0  0  0
    7.6075  -10.8929   25.7828 C   0  0  0  0  0  0  0  0  0  0  0  0
    8.5584  -11.6233   25.1398 C   0  0  0  0  0  0  0  0  0  0  0  0
    8.5468  -13.0071   25.2294 C   0  0  0  0  0  0  0  0  0  0  0  0
    7.5851  -13.6609   25.9622 C   0  0  0  0  0  0  0  0  0  0  0  0
    8.5306  -17.6381   23.8223 C   0  0  0  0  0  0  0  0  0  0  0  0
    9.1444  -18.6799   24.1845 O   0  0  0  0  0  0  0  0  0  0  0  0
    7.6642  -12.2943   17.3022 N   0  0  0  0  0  0  0  0  0  0  0  0
    8.1713  -13.6193   17.4234 C   0  0  0  0  0  0  0  0  0  0  0  0
    8.2892  -14.3706   16.3640 N   0  0  0  0  0  0  0  0  0  0  0  0
    8.5563  -14.1487   18.6843 N   0  0  0  0  0  0  0  0  0  0  0  0
    9.1384  -15.4656   18.7881 C   0  0  0  0  0  0  0  0  0  0  0  0
    9.3655  -15.7777   20.2416 C   0  0  0  0  0  0  0  0  0  0  0  0
    9.9801  -17.1254   20.4306 C   0  0  0  0  0  0  0  0  0  0  0  0
   10.0993  -17.4433   21.9038 C   0  0  2  0  0  0  0  0  0  0  0  0
    8.8706  -17.1169   22.5482 N   0  0  0  0  0  0  0  0  0  0  0  0
   11.2767  -16.7690   22.4989 C   0  0  0  0  0  0  0  0  0  0  0  0
   11.8977  -15.9042   21.8466 O   0  0  0  0  0  0  0  0  0  0  0  0
    8.7423  -15.2973   16.4233 O   0  0  0  0  0  0  0  0  0  0  0  0
    8.1482  -15.0696   28.4566 C   0  0  0  0  0  0  0  0  0  0  0  0
    9.3194  -15.4897   27.8018 C   0  0  0  0  0  0  0  0  0  0  0  0
   10.1327  -16.4474   28.3824 C   0  0  0  0  0  0  0  0  0  0  0  0
   11.2854  -16.8827   27.7726 C   0  0  0  0  0  0  0  0  0  0  0  0
   11.6475  -16.3555   26.5489 C   0  0  0  0  0  0  0  0  0  0  0  0
   12.8867  -16.7993   25.8756 C   0  0  2  0  0  0  0  0  0  0  0  0
   12.9307  -16.5102   24.4120 N   0  0  0  0  0  0  0  0  0  0  0  0
   11.7324  -17.0749   23.8054 C   0  0  0  0  0  0  0  0  0  0  0  0
   14.1695  -16.9176   23.7271 O   0  0  0  0  0  0  0  0  0  0  0  0
   15.2995  -16.4655   24.0164 C   0  0  0  0  0  0  0  0  0  0  0  0
   10.8529  -15.4013   25.9530 C   0  0  0  0  0  0  0  0  0  0  0  0
    9.6997  -14.9797   26.5845 O   0  0  0  0  0  0  0  0  0  0  0  0
  2  1  1  1
  3  2  1  0
  4  5  2  0
  4  3  1  0
  6  5  1  0
  7 12  2  0
  7  6  1  0
  8  7  1  0
  9  8  2  0
  9 10  1  0
 10 11  2  0
 11 12  1  0
 12  4  1  0
 13  2  1  0
 14 13  2  0
 16 15  1  0
 17 16  2  0
 18 16  1  0
 19 18  1  0
 19 20  1  0
 20 21  1  0
 22 21  1  6
 22 24  1  0
 22 23  1  0
 23 13  1  0
 24 33  1  0
 25 24  2  0
 26 27  1  0
 27 28  2  0
 27 37  1  0
 28 29  1  0
 29 30  2  0
 30 31  1  0
 32 34  1  0
 32 31  1  1
 33 32  1  0
 34 38  1  0
 35 34  2  0
 36 30  1  0
 37 36  2  0
M  END
$$$$
