WRY.pdb
     RDKit          3D

 38 40  0  0  1  0  0  0  0  0999 V2000
    6.6137  -18.4111   24.8196 N   0  0  0  0  0  0  0  0  0  0  0  0
    7.1321  -17.0977   24.5260 C   0  0  1  0  0  0  0  0  0  0  0  0
    7.6428  -16.3766   25.7171 C   0  0  0  0  0  0  0  0  0  0  0  0
    6.8336  -15.2415   26.1775 C   0  0  0  0  0  0  0  0  0  0  0  0
    5.5812  -15.2895   26.8125 C   0  0  0  0  0  0  0  0  0  0  0  0
    5.2094  -14.0356   27.0834 N   0  0  0  0  0  0  0  0  0  0  0  0
    6.1298  -13.1616   26.6706 C   0  0  0  0  0  0  0  0  0  0  0  0
    6.2288  -11.7927   26.7034 C   0  0  0  0  0  0  0  0  0  0  0  0
    7.3122  -11.1369   26.1877 C   0  0  0  0  0  0  0  0  0  0  0  0
    8.3195  -11.8590   25.6264 C   0  0  0  0  0  0  0  0  0  0  0  0
    8.2388  -13.2428   25.5831 C   0  0  0  0  0  0  0  0  0  0  0  0
    7.1514  -13.9048   26.1014 C   0  0  0  0  0  0  0  0  0  0  0  0
    8.2029  -17.2162   23.4813 C   0  0  0  0  0  0  0  0  0  0  0  0
    9.0277  -18.1716   23.4933 O   0  0  0  0  0  0  0  0  0  0  0  0
    7.8566  -15.4676   16.6292 N   0  0  0  0  0  0  0  0  0  0  0  0
    7.9983  -14.1019   17.0067 C   0  0  0  0  0  0  0  0  0  0  0  0
    8.2543  -13.1994   16.1008 N   0  0  0  0  0  0  0  0  0  0  0  0
    7.8658  -13.6940   18.3611 N   0  0  0  0  0  0  0  0  0  0  0  0
    7.2517  -14.5604   19.3388 C   0  0  0  0  0  0  0  0  0  0  0  0
    8.2127  -15.6688   19.6702 C   0  0  0  0  0  0  0  0  0  0  0  0
    9.3299  -15.1935   20.5395 C   0  0  0  0  0  0  0  0  0  0  0  0
    9.5523  -16.1607   21.6799 C   0  0  2  0  0  0  0  0  0  0  0  0
    8.3477  -16.2716   22.4337 N   0  0  0  0  0  0  0  0  0  0  0  0
   10.7245  -15.7620   22.4935 C   0  0  0  0  0  0  0  0  0  0  0  0
   11.1792  -14.6023   22.4083 O   0  0  0  0  0  0  0  0  0  0  0  0
    8.2449  -12.1946   16.3412 O   0  0  0  0  0  0  0  0  0  0  0  0
    9.7686  -15.6375   29.9368 C   0  0  0  0  0  0  0  0  0  0  0  0
   10.3836  -15.4795   28.6823 C   0  0  0  0  0  0  0  0  0  0  0  0
   11.1344  -16.5099   28.1436 C   0  0  0  0  0  0  0  0  0  0  0  0
   11.7505  -16.3921   26.9202 C   0  0  0  0  0  0  0  0  0  0  0  0
   11.6211  -15.2185   26.2045 C   0  0  0  0  0  0  0  0  0  0  0  0
   12.2808  -15.0621   24.8906 C   0  0  1  0  0  0  0  0  0  0  0  0
   12.5402  -16.3456   24.1743 N   0  0  0  0  0  0  0  0  0  0  0  0
   11.3604  -16.6650   23.3813 C   0  0  0  0  0  0  0  0  0  0  0  0
   12.9816  -17.4635   25.0259 O   0  0  0  0  0  0  0  0  0  0  0  0
   14.0361  -17.4449   25.6986 C   0  0  0  0  0  0  0  0  0  0  0  0
   10.8786  -14.1802   26.7217 C   0  0  0  0  0  0  0  0  0  0  0  0
   10.2689  -14.3216   27.9523 O   0  0  0  0  0  0  0  0  0  0  0  0
  2  1  1  1
  3  2  1  0
  4  5  2  0
  4  3  1  0
  6  5  1  0
  7 12  2  0
  7  6  1  0
  8  7  1  0
  9  8  2  0
  9 10  1  0
 10 11  2  0
 11 12  1  0
 12  4  1  0
 13  2  1  0
 14 13  2  0
 16 15  1  0
 17 16  2  0
 18 16  1  0
 19 18  1  0
 19 20  1  0
 20 21  1  0
 22 21  1  6
 22 24  1  0
 22 23  1  0
 23 13  1  0
 24 33  1  0
 25 24  2  0
 26 27  1  0
 27 28  2  0
 27 37  1  0
 28 29  1  0
 29 30  2  0
 30 31  1  0
 32 34  1  0
 32 31  1  6
 33 32  1  0
 34 38  1  0
 35 34  2  0
 36 30  1  0
 37 36  2  0
M  END
$$$$
