WRY.pdb
     RDKit          3D

 38 40  0  0  1  0  0  0  0  0999 V2000
    6.8708  -18.5954   25.0456 N   0  0  0  0  0  0  0  0  0  0  0  0
    6.9616  -17.2851   24.4498 C   0  0  1  0  0  0  0  0  0  0  0  0
    7.8200  -16.3423   25.2071 C   0  0  0  0  0  0  0  0  0  0  0  0
    7.1165  -15.3601   26.0411 C   0  0  0  0  0  0  0  0  0  0  0  0
    6.3473  -15.6122   27.1895 C   0  0  0  0  0  0  0  0  0  0  0  0
    5.9074  -14.4402   27.6550 N   0  0  0  0  0  0  0  0  0  0  0  0
    6.3325  -13.4303   26.8929 C   0  0  0  0  0  0  0  0  0  0  0  0
    6.1629  -12.0684   26.9313 C   0  0  0  0  0  0  0  0  0  0  0  0
    6.7228  -11.2468   25.9927 C   0  0  0  0  0  0  0  0  0  0  0  0
    7.4679  -11.7920   24.9933 C   0  0  0  0  0  0  0  0  0  0  0  0
    7.6512  -13.1654   24.9365 C   0  0  0  0  0  0  0  0  0  0  0  0
    7.0902  -13.9939   25.8790 C   0  0  0  0  0  0  0  0  0  0  0  0
    7.4472  -17.4226   23.0365 C   0  0  0  0  0  0  0  0  0  0  0  0
    7.9493  -18.5023   22.6179 O   0  0  0  0  0  0  0  0  0  0  0  0
    9.6888  -14.4019   15.5784 N   0  0  0  0  0  0  0  0  0  0  0  0
    8.2788  -14.2427   15.6973 C   0  0  0  0  0  0  0  0  0  0  0  0
    7.5195  -14.3592   14.6435 N   0  0  0  0  0  0  0  0  0  0  0  0
    7.6724  -13.9568   16.9498 N   0  0  0  0  0  0  0  0  0  0  0  0
    8.4750  -13.7570   18.1329 C   0  0  0  0  0  0  0  0  0  0  0  0
    8.6090  -15.0718   18.8508 C   0  0  0  0  0  0  0  0  0  0  0  0
    7.8946  -15.0637   20.1620 C   0  0  0  0  0  0  0  0  0  0  0  0
    8.0839  -16.3870   20.8681 C   0  0  2  0  0  0  0  0  0  0  0  0
    7.3710  -16.3588   22.1020 N   0  0  0  0  0  0  0  0  0  0  0  0
    9.5225  -16.7052   21.0232 C   0  0  0  0  0  0  0  0  0  0  0  0
   10.1036  -17.4051   20.1680 O   0  0  0  0  0  0  0  0  0  0  0  0
    6.4915  -14.2961   14.7257 O   0  0  0  0  0  0  0  0  0  0  0  0
   13.1983  -13.7721   16.8183 C   0  0  0  0  0  0  0  0  0  0  0  0
   13.0335  -14.1855   18.1521 C   0  0  0  0  0  0  0  0  0  0  0  0
   12.2697  -13.4283   19.0233 C   0  0  0  0  0  0  0  0  0  0  0  0
   12.0862  -13.8004   20.3340 C   0  0  0  0  0  0  0  0  0  0  0  0
   12.6760  -14.9584   20.8005 C   0  0  0  0  0  0  0  0  0  0  0  0
   12.5023  -15.3768   22.2079 C   0  0  2  0  0  0  0  0  0  0  0  0
   11.6639  -16.5983   22.3890 N   0  0  0  0  0  0  0  0  0  0  0  0
   10.2774  -16.2356   22.1267 C   0  0  0  0  0  0  0  0  0  0  0  0
   11.8428  -17.2997   23.6720 O   0  0  0  0  0  0  0  0  0  0  0  0
   12.9549  -17.6747   24.1050 C   0  0  0  0  0  0  0  0  0  0  0  0
   13.4402  -15.7271   19.9508 C   0  0  0  0  0  0  0  0  0  0  0  0
   13.6102  -15.3333   18.6385 O   0  0  0  0  0  0  0  0  0  0  0  0
  2  1  1  1
  3  2  1  0
  4  5  2  0
  4  3  1  0
  6  5  1  0
  7 12  2  0
  7  6  1  0
  8  7  1  0
  9  8  2  0
  9 10  1  0
 10 11  2  0
 11 12  1  0
 12  4  1  0
 13  2  1  0
 14 13  2  0
 16 15  1  0
 17 16  2  0
 18 16  1  0
 19 18  1  0
 19 20  1  0
 20 21  1  0
 22 21  1  1
 22 24  1  0
 22 23  1  0
 23 13  1  0
 24 33  1  0
 25 24  2  0
 26 27  1  0
 27 28  2  0
 27 37  1  0
 28 29  1  0
 29 30  2  0
 30 31  1  0
 32 34  1  0
 32 31  1  6
 33 32  1  0
 34 38  1  0
 35 34  2  0
 36 30  1  0
 37 36  2  0
M  END
$$$$
