WRY.pdb
     RDKit          3D

 38 40  0  0  1  0  0  0  0  0999 V2000
    6.2786  -17.7541   24.0018 N   0  0  0  0  0  0  0  0  0  0  0  0
    7.0245  -16.5957   23.5755 C   0  0  1  0  0  0  0  0  0  0  0  0
    7.6833  -15.8669   24.6865 C   0  0  0  0  0  0  0  0  0  0  0  0
    6.8169  -14.9893   25.4829 C   0  0  0  0  0  0  0  0  0  0  0  0
    5.8592  -15.3740   26.4362 C   0  0  0  0  0  0  0  0  0  0  0  0
    5.3139  -14.2647   26.9420 N   0  0  0  0  0  0  0  0  0  0  0  0
    5.8449  -13.1726   26.3881 C   0  0  0  0  0  0  0  0  0  0  0  0
    5.6379  -11.8247   26.5472 C   0  0  0  0  0  0  0  0  0  0  0  0
    6.3380  -10.8990   25.8243 C   0  0  0  0  0  0  0  0  0  0  0  0
    7.2644  -11.3234   24.9228 C   0  0  0  0  0  0  0  0  0  0  0  0
    7.4885  -12.6806   24.7470 C   0  0  0  0  0  0  0  0  0  0  0  0
    6.7869  -13.6136   25.4727 C   0  0  0  0  0  0  0  0  0  0  0  0
    8.0339  -17.0147   22.5470 C   0  0  0  0  0  0  0  0  0  0  0  0
    8.6708  -18.0989   22.6571 O   0  0  0  0  0  0  0  0  0  0  0  0
    8.9860  -12.5233   16.1203 N   0  0  0  0  0  0  0  0  0  0  0  0
    9.3653  -13.8920   16.0191 C   0  0  0  0  0  0  0  0  0  0  0  0
   10.2880  -14.2506   15.1700 N   0  0  0  0  0  0  0  0  0  0  0  0
    8.7565  -14.8875   16.8293 N   0  0  0  0  0  0  0  0  0  0  0  0
    7.7554  -14.5356   17.8080 C   0  0  0  0  0  0  0  0  0  0  0  0
    7.9223  -15.4263   19.0083 C   0  0  0  0  0  0  0  0  0  0  0  0
    9.3615  -15.6676   19.3247 C   0  0  0  0  0  0  0  0  0  0  0  0
    9.4894  -16.4482   20.6131 C   0  0  2  0  0  0  0  0  0  0  0  0
    8.3266  -16.2247   21.4065 N   0  0  0  0  0  0  0  0  0  0  0  0
   10.7540  -16.1180   21.3107 C   0  0  0  0  0  0  0  0  0  0  0  0
   11.3134  -15.0209   21.1048 O   0  0  0  0  0  0  0  0  0  0  0  0
   10.5303  -15.2473   15.0455 O   0  0  0  0  0  0  0  0  0  0  0  0
   11.5369  -14.2483   29.5362 C   0  0  0  0  0  0  0  0  0  0  0  0
   11.2832  -14.6795   28.2221 C   0  0  0  0  0  0  0  0  0  0  0  0
   12.2873  -15.2818   27.4841 C   0  0  0  0  0  0  0  0  0  0  0  0
   12.0769  -15.7159   26.1967 C   0  0  0  0  0  0  0  0  0  0  0  0
   10.8340  -15.5504   25.6185 C   0  0  0  0  0  0  0  0  0  0  0  0
   10.5833  -15.9999   24.2325 C   0  0  2  0  0  0  0  0  0  0  0  0
   11.7450  -16.6767   23.5841 N   0  0  0  0  0  0  0  0  0  0  0  0
   11.3632  -17.0180   22.2201 C   0  0  0  0  0  0  0  0  0  0  0  0
   12.3039  -17.8184   24.3285 O   0  0  0  0  0  0  0  0  0  0  0  0
   11.9796  -19.0076   24.1149 C   0  0  0  0  0  0  0  0  0  0  0  0
    9.8203  -14.9534   26.3347 C   0  0  0  0  0  0  0  0  0  0  0  0
   10.0552  -14.5255   27.6262 O   0  0  0  0  0  0  0  0  0  0  0  0
  2  1  1  1
  3  2  1  0
  4  5  2  0
  4  3  1  0
  6  5  1  0
  7 12  2  0
  7  6  1  0
  8  7  1  0
  9  8  2  0
  9 10  1  0
 10 11  2  0
 11 12  1  0
 12  4  1  0
 13  2  1  0
 14 13  2  0
 16 15  1  0
 17 16  2  0
 18 16  1  0
 19 18  1  0
 19 20  1  0
 20 21  1  0
 22 21  1  6
 22 24  1  0
 22 23  1  0
 23 13  1  0
 24 33  1  0
 25 24  2  0
 26 27  1  0
 27 28  2  0
 27 37  1  0
 28 29  1  0
 29 30  2  0
 30 31  1  0
 32 34  1  0
 32 31  1  6
 33 32  1  0
 34 38  1  0
 35 34  2  0
 36 30  1  0
 37 36  2  0
M  END
$$$$
