WRY.pdb
     RDKit          3D

 38 40  0  0  1  0  0  0  0  0999 V2000
    6.6865  -17.8072   24.0810 N   0  0  0  0  0  0  0  0  0  0  0  0
    7.5392  -16.6650   23.8611 C   0  0  1  0  0  0  0  0  0  0  0  0
    7.9154  -15.9515   25.1056 C   0  0  0  0  0  0  0  0  0  0  0  0
    6.8832  -15.0844   25.6867 C   0  0  0  0  0  0  0  0  0  0  0  0
    5.8502  -15.4581   26.5627 C   0  0  0  0  0  0  0  0  0  0  0  0
    5.1519  -14.3609   26.8666 N   0  0  0  0  0  0  0  0  0  0  0  0
    5.6519  -13.2872   26.2512 C   0  0  0  0  0  0  0  0  0  0  0  0
    5.3108  -11.9576   26.2236 C   0  0  0  0  0  0  0  0  0  0  0  0
    6.0136  -11.0498   25.4809 C   0  0  0  0  0  0  0  0  0  0  0  0
    7.0791  -11.4740   24.7490 C   0  0  0  0  0  0  0  0  0  0  0  0
    7.4400  -12.8129   24.7631 C   0  0  0  0  0  0  0  0  0  0  0  0
    6.7360  -13.7277   25.5093 C   0  0  0  0  0  0  0  0  0  0  0  0
    8.7641  -17.1052   23.1140 C   0  0  0  0  0  0  0  0  0  0  0  0
    9.2191  -18.2765   23.2332 O   0  0  0  0  0  0  0  0  0  0  0  0
    8.6561  -14.8241   17.6873 N   0  0  0  0  0  0  0  0  0  0  0  0
    8.4058  -13.5142   18.1864 C   0  0  0  0  0  0  0  0  0  0  0  0
    7.2859  -12.9111   17.8988 N   0  0  0  0  0  0  0  0  0  0  0  0
    9.3568  -12.8409   18.9991 N   0  0  0  0  0  0  0  0  0  0  0  0
   10.5368  -13.5216   19.4769 C   0  0  0  0  0  0  0  0  0  0  0  0
   10.1089  -14.7030   20.3033 C   0  0  0  0  0  0  0  0  0  0  0  0
   11.2765  -15.4051   20.9144 C   0  0  0  0  0  0  0  0  0  0  0  0
   10.8013  -16.5238   21.8135 C   0  0  2  0  0  0  0  0  0  0  0  0
    9.4721  -16.2395   22.2422 N   0  0  0  0  0  0  0  0  0  0  0  0
   11.7486  -16.7457   22.9309 C   0  0  0  0  0  0  0  0  0  0  0  0
   12.8691  -16.1951   22.9191 O   0  0  0  0  0  0  0  0  0  0  0  0
    7.0472  -12.0065   18.3374 O   0  0  0  0  0  0  0  0  0  0  0  0
    9.8511  -13.2121   28.3961 C   0  0  0  0  0  0  0  0  0  0  0  0
   10.2944  -14.4472   27.8913 C   0  0  0  0  0  0  0  0  0  0  0  0
   11.5276  -14.5399   27.2697 C   0  0  0  0  0  0  0  0  0  0  0  0
   11.9943  -15.7299   26.7637 C   0  0  0  0  0  0  0  0  0  0  0  0
   11.2183  -16.8665   26.8751 C   0  0  0  0  0  0  0  0  0  0  0  0
   11.6924  -18.1572   26.3316 C   0  0  2  0  0  0  0  0  0  0  0  0
   12.3877  -18.0536   25.0149 N   0  0  0  0  0  0  0  0  0  0  0  0
   11.4236  -17.5749   24.0331 C   0  0  0  0  0  0  0  0  0  0  0  0
   13.0967  -19.2695   24.5804 O   0  0  0  0  0  0  0  0  0  0  0  0
   13.9751  -19.8390   25.2652 C   0  0  0  0  0  0  0  0  0  0  0  0
    9.9878  -16.7972   27.4898 C   0  0  0  0  0  0  0  0  0  0  0  0
    9.5401  -15.5909   27.9904 O   0  0  0  0  0  0  0  0  0  0  0  0
  2  1  1  1
  3  2  1  0
  4  5  2  0
  4  3  1  0
  6  5  1  0
  7 12  2  0
  7  6  1  0
  8  7  1  0
  9  8  2  0
  9 10  1  0
 10 11  2  0
 11 12  1  0
 12  4  1  0
 13  2  1  0
 14 13  2  0
 16 15  1  0
 17 16  2  0
 18 16  1  0
 19 18  1  0
 19 20  1  0
 20 21  1  0
 22 21  1  1
 22 24  1  0
 22 23  1  0
 23 13  1  0
 24 33  1  0
 25 24  2  0
 26 27  1  0
 27 28  2  0
 27 37  1  0
 28 29  1  0
 29 30  2  0
 30 31  1  0
 32 34  1  0
 32 31  1  1
 33 32  1  0
 34 38  1  0
 35 34  2  0
 36 30  1  0
 37 36  2  0
M  END
$$$$
