WRY.pdb
     RDKit          3D

 38 40  0  0  1  0  0  0  0  0999 V2000
    7.3886  -17.7440   26.5899 N   0  0  0  0  0  0  0  0  0  0  0  0
    7.3359  -17.0194   25.3440 C   0  0  1  0  0  0  0  0  0  0  0  0
    8.3029  -15.8978   25.2635 C   0  0  0  0  0  0  0  0  0  0  0  0
    8.1740  -14.8623   26.2960 C   0  0  0  0  0  0  0  0  0  0  0  0
    8.9172  -14.7443   27.4824 C   0  0  0  0  0  0  0  0  0  0  0  0
    8.4981  -13.6498   28.1230 N   0  0  0  0  0  0  0  0  0  0  0  0
    7.5281  -13.0361   27.4418 C   0  0  0  0  0  0  0  0  0  0  0  0
    6.7761  -11.9082   27.6587 C   0  0  0  0  0  0  0  0  0  0  0  0
    5.8180  -11.5008   26.7722 C   0  0  0  0  0  0  0  0  0  0  0  0
    5.6030  -12.2318   25.6451 C   0  0  0  0  0  0  0  0  0  0  0  0
    6.3519  -13.3745   25.4074 C   0  0  0  0  0  0  0  0  0  0  0  0
    7.3163  -13.7862   26.2962 C   0  0  0  0  0  0  0  0  0  0  0  0
    7.5456  -17.9797   24.2099 C   0  0  0  0  0  0  0  0  0  0  0  0
    8.0685  -19.1129   24.3986 O   0  0  0  0  0  0  0  0  0  0  0  0
    7.8267  -15.2975   15.9953 N   0  0  0  0  0  0  0  0  0  0  0  0
    7.7761  -14.4082   17.1062 C   0  0  0  0  0  0  0  0  0  0  0  0
    7.9465  -13.1282   16.9236 N   0  0  0  0  0  0  0  0  0  0  0  0
    7.5417  -14.8865   18.4233 N   0  0  0  0  0  0  0  0  0  0  0  0
    7.3678  -16.2965   18.6792 C   0  0  0  0  0  0  0  0  0  0  0  0
    7.2451  -16.5042   20.1636 C   0  0  0  0  0  0  0  0  0  0  0  0
    7.0191  -17.9399   20.5064 C   0  0  0  0  0  0  0  0  0  0  0  0
    7.7858  -18.3052   21.7572 C   0  0  2  0  0  0  0  0  0  0  0  0
    7.1728  -17.6714   22.8770 N   0  0  0  0  0  0  0  0  0  0  0  0
    9.2249  -17.9846   21.6106 C   0  0  0  0  0  0  0  0  0  0  0  0
    9.9121  -18.5740   20.7508 O   0  0  0  0  0  0  0  0  0  0  0  0
    8.0565  -12.4913   17.7297 O   0  0  0  0  0  0  0  0  0  0  0  0
    8.7853  -12.7078   17.8025 C   0  0  0  0  0  0  0  0  0  0  0  0
    9.4221  -13.3108   18.9015 C   0  0  0  0  0  0  0  0  0  0  0  0
    8.7728  -13.3897   20.1213 C   0  0  0  0  0  0  0  0  0  0  0  0
    9.3633  -13.9716   21.2181 C   0  0  0  0  0  0  0  0  0  0  0  0
   10.6368  -14.4932   21.1073 C   0  0  0  0  0  0  0  0  0  0  0  0
   11.2985  -15.1164   22.2734 C   0  0  2  0  0  0  0  0  0  0  0  0
   11.2534  -16.6082   22.2836 N   0  0  0  0  0  0  0  0  0  0  0  0
    9.8617  -17.0155   22.4251 C   0  0  0  0  0  0  0  0  0  0  0  0
   12.1456  -17.2581   23.2590 O   0  0  0  0  0  0  0  0  0  0  0  0
   11.7485  -18.0679   24.1259 C   0  0  0  0  0  0  0  0  0  0  0  0
   11.3015  -14.4255   19.9028 C   0  0  0  0  0  0  0  0  0  0  0  0
   10.6881  -13.8365   18.8152 O   0  0  0  0  0  0  0  0  0  0  0  0
  2  1  1  1
  3  2  1  0
  4  5  2  0
  4  3  1  0
  6  5  1  0
  7 12  2  0
  7  6  1  0
  8  7  1  0
  9  8  2  0
  9 10  1  0
 10 11  2  0
 11 12  1  0
 12  4  1  0
 13  2  1  0
 14 13  2  0
 16 15  1  0
 17 16  2  0
 18 16  1  0
 19 18  1  0
 19 20  1  0
 20 21  1  0
 22 21  1  6
 22 24  1  0
 22 23  1  0
 23 13  1  0
 24 33  1  0
 25 24  2  0
 26 27  1  0
 27 28  2  0
 27 37  1  0
 28 29  1  0
 29 30  2  0
 30 31  1  0
 32 34  1  0
 32 31  1  6
 33 32  1  0
 34 38  1  0
 35 34  2  0
 36 30  1  0
 37 36  2  0
M  END
$$$$
