WRY.pdb
     RDKit          3D

 38 40  0  0  1  0  0  0  0  0999 V2000
    6.1259  -17.2448   23.6386 N   0  0  0  0  0  0  0  0  0  0  0  0
    7.0953  -16.1810   23.7311 C   0  0  1  0  0  0  0  0  0  0  0  0
    7.4628  -15.8267   25.1235 C   0  0  0  0  0  0  0  0  0  0  0  0
    6.5922  -14.8501   25.7896 C   0  0  0  0  0  0  0  0  0  0  0  0
    5.5540  -15.1142   26.6985 C   0  0  0  0  0  0  0  0  0  0  0  0
    5.0351  -13.9446   27.0812 N   0  0  0  0  0  0  0  0  0  0  0  0
    5.6586  -12.9249   26.4871 C   0  0  0  0  0  0  0  0  0  0  0  0
    5.5125  -11.5605   26.5312 C   0  0  0  0  0  0  0  0  0  0  0  0
    6.3072  -10.7275   25.7933 C   0  0  0  0  0  0  0  0  0  0  0  0
    7.2683  -11.2637   24.9934 C   0  0  0  0  0  0  0  0  0  0  0  0
    7.4321  -12.6395   24.9346 C   0  0  0  0  0  0  0  0  0  0  0  0
    6.6354  -13.4794   25.6757 C   0  0  0  0  0  0  0  0  0  0  0  0
    8.3151  -16.5604   22.9434 C   0  0  0  0  0  0  0  0  0  0  0  0
    8.4901  -17.7415   22.5342 O   0  0  0  0  0  0  0  0  0  0  0  0
    8.4820  -13.7445   15.0889 N   0  0  0  0  0  0  0  0  0  0  0  0
    8.4068  -14.6405   16.1931 C   0  0  0  0  0  0  0  0  0  0  0  0
    9.0722  -15.7619   16.1678 N   0  0  0  0  0  0  0  0  0  0  0  0
    7.6161  -14.3393   17.3343 N   0  0  0  0  0  0  0  0  0  0  0  0
    8.2185  -13.8061   18.5329 C   0  0  0  0  0  0  0  0  0  0  0  0
    8.9048  -14.9262   19.2653 C   0  0  0  0  0  0  0  0  0  0  0  0
    9.5244  -14.4580   20.5406 C   0  0  0  0  0  0  0  0  0  0  0  0
    9.9940  -15.6400   21.3580 C   0  0  2  0  0  0  0  0  0  0  0  0
    9.3291  -15.6239   22.6185 N   0  0  0  0  0  0  0  0  0  0  0  0
   11.4713  -15.6557   21.4686 C   0  0  0  0  0  0  0  0  0  0  0  0
   12.1498  -14.7721   20.9049 O   0  0  0  0  0  0  0  0  0  0  0  0
    9.0471  -16.4073   16.9743 O   0  0  0  0  0  0  0  0  0  0  0  0
   10.8917  -15.7441   29.8679 C   0  0  0  0  0  0  0  0  0  0  0  0
   10.9056  -15.9296   28.4742 C   0  0  0  0  0  0  0  0  0  0  0  0
   10.8821  -14.8341   27.6287 C   0  0  0  0  0  0  0  0  0  0  0  0
   10.8944  -14.9761   26.2613 C   0  0  0  0  0  0  0  0  0  0  0  0
   10.9315  -16.2414   25.7099 C   0  0  0  0  0  0  0  0  0  0  0  0
   10.9363  -16.4226   24.2425 C   0  0  2  0  0  0  0  0  0  0  0  0
   12.2873  -16.6630   23.6554 N   0  0  0  0  0  0  0  0  0  0  0  0
   12.1554  -16.6551   22.2044 C   0  0  0  0  0  0  0  0  0  0  0  0
   12.9914  -17.8531   24.1631 O   0  0  0  0  0  0  0  0  0  0  0  0
   14.0435  -17.7979   24.8376 C   0  0  0  0  0  0  0  0  0  0  0  0
   10.9553  -17.3457   26.5326 C   0  0  0  0  0  0  0  0  0  0  0  0
   10.9424  -17.1783   27.9030 O   0  0  0  0  0  0  0  0  0  0  0  0
  2  1  1  1
  3  2  1  0
  4  5  2  0
  4  3  1  0
  6  5  1  0
  7 12  2  0
  7  6  1  0
  8  7  1  0
  9  8  2  0
  9 10  1  0
 10 11  2  0
 11 12  1  0
 12  4  1  0
 13  2  1  0
 14 13  2  0
 16 15  1  0
 17 16  2  0
 18 16  1  0
 19 18  1  0
 19 20  1  0
 20 21  1  0
 22 21  1  6
 22 24  1  0
 22 23  1  0
 23 13  1  0
 24 33  1  0
 25 24  2  0
 26 27  1  0
 27 28  2  0
 27 37  1  0
 28 29  1  0
 29 30  2  0
 30 31  1  0
 32 34  1  0
 32 31  1  6
 33 32  1  0
 34 38  1  0
 35 34  2  0
 36 30  1  0
 37 36  2  0
M  END
$$$$
