WRY.pdb
     RDKit          3D

 38 40  0  0  1  0  0  0  0  0999 V2000
    8.2960  -17.9859   20.7074 N   0  0  0  0  0  0  0  0  0  0  0  0
    8.6785  -16.9063   21.5837 C   0  0  1  0  0  0  0  0  0  0  0  0
    7.5697  -15.9751   21.9042 C   0  0  0  0  0  0  0  0  0  0  0  0
    7.4302  -14.8124   21.0188 C   0  0  0  0  0  0  0  0  0  0  0  0
    7.0398  -14.8108   19.6692 C   0  0  0  0  0  0  0  0  0  0  0  0
    7.0193  -13.5433   19.2486 N   0  0  0  0  0  0  0  0  0  0  0  0
    7.3701  -12.7065   20.2275 C   0  0  0  0  0  0  0  0  0  0  0  0
    7.5092  -11.3434   20.3138 C   0  0  0  0  0  0  0  0  0  0  0  0
    7.8994  -10.7319   21.4729 C   0  0  0  0  0  0  0  0  0  0  0  0
    8.1573  -11.4933   22.5706 C   0  0  0  0  0  0  0  0  0  0  0  0
    8.0228  -12.8720   22.5042 C   0  0  0  0  0  0  0  0  0  0  0  0
    7.6300  -13.4895   21.3407 C   0  0  0  0  0  0  0  0  0  0  0  0
    9.2659  -17.4800   22.8399 C   0  0  0  0  0  0  0  0  0  0  0  0
    8.5313  -17.9598   23.7474 O   0  0  0  0  0  0  0  0  0  0  0  0
   13.6254  -22.2952   25.0387 N   0  0  0  0  0  0  0  0  0  0  0  0
   14.4994  -21.8454   26.0690 C   0  0  0  0  0  0  0  0  0  0  0  0
   14.8897  -22.6727   26.9986 N   0  0  0  0  0  0  0  0  0  0  0  0
   14.9617  -20.5027   26.1095 N   0  0  0  0  0  0  0  0  0  0  0  0
   14.6065  -19.5655   25.0706 C   0  0  0  0  0  0  0  0  0  0  0  0
   13.1637  -19.1784   25.2450 C   0  0  0  0  0  0  0  0  0  0  0  0
   12.6298  -18.4703   24.0436 C   0  0  0  0  0  0  0  0  0  0  0  0
   11.2100  -18.0149   24.2938 C   0  0  2  0  0  0  0  0  0  0  0  0
   10.6636  -17.5146   23.0762 N   0  0  0  0  0  0  0  0  0  0  0  0
   11.1530  -17.0434   25.4109 C   0  0  0  0  0  0  0  0  0  0  0  0
   11.8008  -15.9780   25.3464 O   0  0  0  0  0  0  0  0  0  0  0  0
   15.5626  -22.3717   27.7226 O   0  0  0  0  0  0  0  0  0  0  0  0
    7.1479  -12.3003   24.2617 C   0  0  0  0  0  0  0  0  0  0  0  0
    7.6240  -13.2212   25.2116 C   0  0  0  0  0  0  0  0  0  0  0  0
    8.5787  -12.8331   26.1355 C   0  0  0  0  0  0  0  0  0  0  0  0
    9.0681  -13.7053   27.0788 C   0  0  0  0  0  0  0  0  0  0  0  0
    8.5995  -15.0036   27.1116 C   0  0  0  0  0  0  0  0  0  0  0  0
    9.1155  -15.9645   28.1099 C   0  0  2  0  0  0  0  0  0  0  0  0
   10.4713  -16.5067   27.8004 N   0  0  0  0  0  0  0  0  0  0  0  0
   10.3758  -17.2832   26.5713 C   0  0  0  0  0  0  0  0  0  0  0  0
   11.1198  -17.2439   28.8984 O   0  0  0  0  0  0  0  0  0  0  0  0
   11.4453  -18.4495   28.8234 C   0  0  0  0  0  0  0  0  0  0  0  0
    7.6495  -15.4113   26.2016 C   0  0  0  0  0  0  0  0  0  0  0  0
    7.1728  -14.5175   25.2635 O   0  0  0  0  0  0  0  0  0  0  0  0
  2  1  1  6
  3  2  1  0
  4  5  2  0
  4  3  1  0
  6  5  1  0
  7 12  2  0
  7  6  1  0
  8  7  1  0
  9  8  2  0
  9 10  1  0
 10 11  2  0
 11 12  1  0
 12  4  1  0
 13  2  1  0
 14 13  2  0
 16 15  1  0
 17 16  2  0
 18 16  1  0
 19 18  1  0
 19 20  1  0
 20 21  1  0
 22 21  1  6
 22 24  1  0
 22 23  1  0
 23 13  1  0
 24 33  1  0
 25 24  2  0
 26 27  1  0
 27 28  2  0
 27 37  1  0
 28 29  1  0
 29 30  2  0
 30 31  1  0
 32 34  1  0
 32 31  1  6
 33 32  1  0
 34 38  1  0
 35 34  2  0
 36 30  1  0
 37 36  2  0
M  END
$$$$
