ATH.pdb
     RDKit          3D

 23 23  0  0  1  0  0  0  0  0999 V2000
   19.8257  -12.7298  -19.4686 C   0  0  0  0  0  0  0  0  0  0  0  0
   19.6178  -12.0735  -18.1014 C   0  0  2  0  0  0  0  0  0  0  0  0
   18.3261  -11.4231  -18.1599 N   0  0  0  0  0  0  0  0  0  0  0  0
   20.6601  -11.0459  -17.8971 C   0  0  0  0  0  0  0  0  0  0  0  0
   21.8350  -11.4130  -17.6651 O   0  0  0  0  0  0  0  0  0  0  0  0
   20.4391   -7.3582  -19.6471 C   0  0  0  0  0  0  0  0  0  0  0  0
   21.6850   -7.8517  -18.9819 C   0  0  1  0  0  0  0  0  0  0  0  0
   22.4980   -6.7613  -18.7119 O   0  0  0  0  0  0  0  0  0  0  0  0
   21.3706   -8.6340  -17.6994 C   0  0  2  0  0  0  0  0  0  0  0  0
   20.3953   -9.6515  -17.9508 N   0  0  0  0  0  0  0  0  0  0  0  0
   20.8574   -7.6190  -16.7108 C   0  0  0  0  0  0  0  0  0  0  0  0
   19.7144   -7.0914  -16.8540 O   0  0  0  0  0  0  0  0  0  0  0  0
   21.6431   -7.2284  -15.5934 N   0  0  0  0  0  0  0  0  0  0  0  0
   21.1846   -6.1684  -14.6774 C   0  0  1  0  0  0  0  0  0  0  0  0
   21.2895   -6.7472  -13.2883 C   0  0  0  0  0  0  0  0  0  0  0  0
   20.1555   -7.6145  -12.9868 C   0  0  0  0  0  0  0  0  0  0  0  0
   19.1378   -7.9482  -13.8378 C   0  0  0  0  0  0  0  0  0  0  0  0
   18.2730   -8.7651  -13.2157 N   0  0  0  0  0  0  0  0  0  0  0  0
   18.7524   -8.9403  -11.9764 C   0  0  0  0  0  0  0  0  0  0  0  0
   19.9036   -8.2410  -11.8257 N   0  0  0  0  0  0  0  0  0  0  0  0
   22.1085   -5.0058  -14.7562 C   0  0  0  0  0  0  0  0  0  0  0  0
   21.8368   -3.8101  -14.0784 O   0  0  0  0  0  0  0  0  0  0  0  0
   23.1723   -5.0150  -15.4207 O   0  0  0  0  0  0  0  0  0  0  0  0
  2  3  1  0
  2  1  1  6
  4  2  1  0
  5  4  2  0
  7  6  1  1
  7  9  1  0
  8  7  1  0
  9 11  1  0
  9 10  1  6
 10  4  1  0
 11 13  1  0
 12 11  2  0
 13 14  1  0
 14 15  1  1
 14 21  1  0
 16 15  1  0
 17 16  2  0
 18 17  1  0
 19 18  1  0
 19 20  2  0
 20 16  1  0
 21 23  2  0
 21 22  1  0
M  END
$$$$
