ATH.pdb
     RDKit          3D

 23 23  0  0  1  0  0  0  0  0999 V2000
   27.4859  -16.7510  -18.8389 C   0  0  0  0  0  0  0  0  0  0  0  0
   28.0303  -17.8360  -17.9064 C   0  0  2  0  0  0  0  0  0  0  0  0
   28.9333  -18.6367  -18.7054 N   0  0  0  0  0  0  0  0  0  0  0  0
   26.9109  -18.6881  -17.4540 C   0  0  0  0  0  0  0  0  0  0  0  0
   26.2620  -19.3381  -18.3058 O   0  0  0  0  0  0  0  0  0  0  0  0
   26.9927  -21.3392  -14.6848 C   0  0  0  0  0  0  0  0  0  0  0  0
   25.8478  -20.4226  -14.3891 C   0  0  1  0  0  0  0  0  0  0  0  0
   26.2147  -19.5872  -13.3449 O   0  0  0  0  0  0  0  0  0  0  0  0
   25.4387  -19.6101  -15.6254 C   0  0  2  0  0  0  0  0  0  0  0  0
   26.5300  -18.8088  -16.0910 N   0  0  0  0  0  0  0  0  0  0  0  0
   24.2784  -18.7520  -15.1913 C   0  0  0  0  0  0  0  0  0  0  0  0
   24.4677  -17.6873  -14.5311 O   0  0  0  0  0  0  0  0  0  0  0  0
   22.9431  -19.1161  -15.5118 N   0  0  0  0  0  0  0  0  0  0  0  0
   21.8040  -18.2997  -15.0547 C   0  0  1  0  0  0  0  0  0  0  0  0
   21.1225  -17.8023  -16.3052 C   0  0  0  0  0  0  0  0  0  0  0  0
   20.0085  -16.9154  -15.9867 C   0  0  0  0  0  0  0  0  0  0  0  0
   19.6001  -16.5393  -14.7365 C   0  0  0  0  0  0  0  0  0  0  0  0
   18.5438  -15.7162  -14.8307 N   0  0  0  0  0  0  0  0  0  0  0  0
   18.2942  -15.5795  -16.1405 C   0  0  0  0  0  0  0  0  0  0  0  0
   19.1843  -16.3089  -16.8565 N   0  0  0  0  0  0  0  0  0  0  0  0
   20.8366  -19.1581  -14.3207 C   0  0  0  0  0  0  0  0  0  0  0  0
   20.9946  -20.5489  -14.2601 O   0  0  0  0  0  0  0  0  0  0  0  0
   19.8337  -18.7061  -13.7180 O   0  0  0  0  0  0  0  0  0  0  0  0
  2  3  1  0
  2  1  1  6
  4  2  1  0
  5  4  2  0
  7  6  1  6
  7  9  1  0
  8  7  1  0
  9 11  1  0
  9 10  1  1
 10  4  1  0
 11 13  1  0
 12 11  2  0
 13 14  1  0
 14 15  1  6
 14 21  1  0
 16 15  1  0
 17 16  2  0
 18 17  1  0
 19 18  1  0
 19 20  2  0
 20 16  1  0
 21 23  2  0
 21 22  1  0
M  END
$$$$
