ATH.pdb
     RDKit          3D

 23 23  0  0  1  0  0  0  0  0999 V2000
   23.0090  -12.3612  -19.9917 C   0  0  0  0  0  0  0  0  0  0  0  0
   22.3386  -12.5354  -18.6266 C   0  0  2  0  0  0  0  0  0  0  0  0
   21.5539  -13.7483  -18.7160 N   0  0  0  0  0  0  0  0  0  0  0  0
   21.4289  -11.3956  -18.3880 C   0  0  0  0  0  0  0  0  0  0  0  0
   20.7670  -10.9379  -19.3480 O   0  0  0  0  0  0  0  0  0  0  0  0
   18.4589  -11.1609  -16.0294 C   0  0  0  0  0  0  0  0  0  0  0  0
   19.4313  -10.0847  -15.6627 C   0  0  1  0  0  0  0  0  0  0  0  0
   20.1710  -10.5166  -14.5723 O   0  0  0  0  0  0  0  0  0  0  0  0
   20.3473   -9.7236  -16.8402 C   0  0  2  0  0  0  0  0  0  0  0  0
   21.2652  -10.7874  -17.1149 N   0  0  0  0  0  0  0  0  0  0  0  0
   21.0738   -8.4688  -16.4295 C   0  0  0  0  0  0  0  0  0  0  0  0
   22.2817   -8.5111  -16.0492 O   0  0  0  0  0  0  0  0  0  0  0  0
   20.4219   -7.2069  -16.4588 N   0  0  0  0  0  0  0  0  0  0  0  0
   21.1321   -5.9770  -16.0634 C   0  0  1  0  0  0  0  0  0  0  0  0
   20.2891   -4.8318  -16.5667 C   0  0  0  0  0  0  0  0  0  0  0  0
   20.8930   -3.5440  -16.2414 C   0  0  0  0  0  0  0  0  0  0  0  0
   21.8963   -2.9191  -16.9299 C   0  0  0  0  0  0  0  0  0  0  0  0
   22.1957   -1.7514  -16.3391 N   0  0  0  0  0  0  0  0  0  0  0  0
   21.3783   -1.6490  -15.2818 C   0  0  0  0  0  0  0  0  0  0  0  0
   20.5773   -2.7402  -15.2127 N   0  0  0  0  0  0  0  0  0  0  0  0
   21.1844   -5.8852  -14.5801 C   0  0  0  0  0  0  0  0  0  0  0  0
   22.2166   -5.1988  -13.9271 O   0  0  0  0  0  0  0  0  0  0  0  0
   20.3264   -6.4049  -13.8269 O   0  0  0  0  0  0  0  0  0  0  0  0
  2  3  1  0
  2  1  1  6
  4  2  1  0
  5  4  2  0
  7  6  1  6
  7  9  1  0
  8  7  1  0
  9 11  1  0
  9 10  1  1
 10  4  1  0
 11 13  1  0
 12 11  2  0
 13 14  1  0
 14 15  1  6
 14 21  1  0
 16 15  1  0
 17 16  2  0
 18 17  1  0
 19 18  1  0
 19 20  2  0
 20 16  1  0
 21 23  2  0
 21 22  1  0
M  END
$$$$
