ATH.pdb
     RDKit          3D

 23 23  0  0  1  0  0  0  0  0999 V2000
   28.2378  -20.7042  -17.3956 C   0  0  0  0  0  0  0  0  0  0  0  0
   27.0611  -20.1161  -18.1783 C   0  0  2  0  0  0  0  0  0  0  0  0
   27.6321  -19.1659  -19.1089 N   0  0  0  0  0  0  0  0  0  0  0  0
   26.1740  -19.3933  -17.2432 C   0  0  0  0  0  0  0  0  0  0  0  0
   26.6137  -18.3800  -16.6524 O   0  0  0  0  0  0  0  0  0  0  0  0
   23.5050  -17.1887  -17.6413 C   0  0  0  0  0  0  0  0  0  0  0  0
   22.8936  -18.3162  -16.8710 C   0  0  1  0  0  0  0  0  0  0  0  0
   22.2184  -19.1382  -17.7605 O   0  0  0  0  0  0  0  0  0  0  0  0
   23.9510  -19.1056  -16.0871 C   0  0  2  0  0  0  0  0  0  0  0  0
   24.8368  -19.7922  -16.9780 N   0  0  0  0  0  0  0  0  0  0  0  0
   23.1869  -20.0755  -15.2231 C   0  0  0  0  0  0  0  0  0  0  0  0
   22.9374  -21.2501  -15.6273 O   0  0  0  0  0  0  0  0  0  0  0  0
   22.7273  -19.6964  -13.9334 N   0  0  0  0  0  0  0  0  0  0  0  0
   21.9023  -20.6109  -13.1232 C   0  0  1  0  0  0  0  0  0  0  0  0
   22.2310  -20.3003  -11.6841 C   0  0  0  0  0  0  0  0  0  0  0  0
   23.5361  -20.8345  -11.3097 C   0  0  0  0  0  0  0  0  0  0  0  0
   24.3822  -21.5508  -12.1112 C   0  0  0  0  0  0  0  0  0  0  0  0
   25.4912  -21.8755  -11.4279 N   0  0  0  0  0  0  0  0  0  0  0  0
   25.3358  -21.3610  -10.2001 C   0  0  0  0  0  0  0  0  0  0  0  0
   24.1434  -20.7222  -10.1170 N   0  0  0  0  0  0  0  0  0  0  0  0
   20.4624  -20.3063  -13.3364 C   0  0  0  0  0  0  0  0  0  0  0  0
   20.0539  -19.1645  -14.0382 O   0  0  0  0  0  0  0  0  0  0  0  0
   19.5338  -21.0348  -12.9118 O   0  0  0  0  0  0  0  0  0  0  0  0
  2  3  1  0
  2  1  1  1
  4  2  1  0
  5  4  2  0
  7  6  1  6
  7  9  1  0
  8  7  1  0
  9 11  1  0
  9 10  1  6
 10  4  1  0
 11 13  1  0
 12 11  2  0
 13 14  1  0
 14 15  1  1
 14 21  1  0
 16 15  1  0
 17 16  2  0
 18 17  1  0
 19 18  1  0
 19 20  2  0
 20 16  1  0
 21 23  2  0
 21 22  1  0
M  END
$$$$
