ATH.pdb
     RDKit          3D

 23 23  0  0  1  0  0  0  0  0999 V2000
   18.4296  -14.4341  -17.5593 C   0  0  0  0  0  0  0  0  0  0  0  0
   19.9410  -14.2883  -17.3660 C   0  0  2  0  0  0  0  0  0  0  0  0
   20.3916  -15.5280  -16.7701 N   0  0  0  0  0  0  0  0  0  0  0  0
   20.2010  -13.1828  -16.4203 C   0  0  0  0  0  0  0  0  0  0  0  0
   19.6294  -13.1923  -15.3057 O   0  0  0  0  0  0  0  0  0  0  0  0
   23.3417  -11.9770  -14.7059 C   0  0  0  0  0  0  0  0  0  0  0  0
   22.8250  -10.8563  -15.5517 C   0  0  1  0  0  0  0  0  0  0  0  0
   23.5486  -10.8313  -16.7343 O   0  0  0  0  0  0  0  0  0  0  0  0
   21.3225  -11.0024  -15.8295 C   0  0  2  0  0  0  0  0  0  0  0  0
   21.0735  -12.1009  -16.7132 N   0  0  0  0  0  0  0  0  0  0  0  0
   20.8868   -9.6977  -16.4450 C   0  0  0  0  0  0  0  0  0  0  0  0
   20.9828   -9.5029  -17.6933 O   0  0  0  0  0  0  0  0  0  0  0  0
   20.3573   -8.6535  -15.6403 N   0  0  0  0  0  0  0  0  0  0  0  0
   19.9519   -7.3677  -16.2366 C   0  0  1  0  0  0  0  0  0  0  0  0
   18.8780   -6.8128  -15.3343 C   0  0  0  0  0  0  0  0  0  0  0  0
   17.6061   -7.4983  -15.5376 C   0  0  0  0  0  0  0  0  0  0  0  0
   17.1453   -8.0259  -16.7126 C   0  0  0  0  0  0  0  0  0  0  0  0
   15.9374   -8.5793  -16.5207 N   0  0  0  0  0  0  0  0  0  0  0  0
   15.6457   -8.3963  -15.2254 C   0  0  0  0  0  0  0  0  0  0  0  0
   16.6597   -7.7361  -14.6148 N   0  0  0  0  0  0  0  0  0  0  0  0
   21.0993   -6.4219  -16.2125 C   0  0  0  0  0  0  0  0  0  0  0  0
   21.0286   -5.1723  -16.8422 O   0  0  0  0  0  0  0  0  0  0  0  0
   22.1865   -6.6721  -15.6391 O   0  0  0  0  0  0  0  0  0  0  0  0
  2  3  1  0
  2  1  1  1
  4  2  1  0
  5  4  2  0
  7  6  1  1
  7  9  1  0
  8  7  1  0
  9 11  1  0
  9 10  1  6
 10  4  1  0
 11 13  1  0
 12 11  2  0
 13 14  1  0
 14 15  1  1
 14 21  1  0
 16 15  1  0
 17 16  2  0
 18 17  1  0
 19 18  1  0
 19 20  2  0
 20 16  1  0
 21 23  2  0
 21 22  1  0
M  END
$$$$
