ATH.pdb
     RDKit          3D

 23 23  0  0  1  0  0  0  0  0999 V2000
   27.5029  -18.6402  -16.4739 C   0  0  0  0  0  0  0  0  0  0  0  0
   28.0488  -19.6469  -15.4581 C   0  0  2  0  0  0  0  0  0  0  0  0
   29.0979  -20.3759  -16.1385 N   0  0  0  0  0  0  0  0  0  0  0  0
   26.9732  -20.5913  -15.0905 C   0  0  0  0  0  0  0  0  0  0  0  0
   26.8366  -21.6428  -15.7576 O   0  0  0  0  0  0  0  0  0  0  0  0
   26.1352  -21.8723  -11.4866 C   0  0  0  0  0  0  0  0  0  0  0  0
   24.8856  -21.3438  -12.1168 C   0  0  1  0  0  0  0  0  0  0  0  0
   24.6097  -20.1014  -11.5664 O   0  0  0  0  0  0  0  0  0  0  0  0
   25.0161  -21.2521  -13.6434 C   0  0  2  0  0  0  0  0  0  0  0  0
   26.0790  -20.3658  -14.0103 N   0  0  0  0  0  0  0  0  0  0  0  0
   23.6873  -20.7461  -14.1426 C   0  0  0  0  0  0  0  0  0  0  0  0
   23.3796  -19.5208  -14.0461 O   0  0  0  0  0  0  0  0  0  0  0  0
   22.7464  -21.6310  -14.7341 N   0  0  0  0  0  0  0  0  0  0  0  0
   21.4683  -21.1303  -15.2718 C   0  0  1  0  0  0  0  0  0  0  0  0
   20.9030  -22.2513  -16.1078 C   0  0  0  0  0  0  0  0  0  0  0  0
   19.6524  -21.8581  -16.7486 C   0  0  0  0  0  0  0  0  0  0  0  0
   19.4829  -20.8376  -17.6436 C   0  0  0  0  0  0  0  0  0  0  0  0
   18.1961  -20.7711  -18.0204 N   0  0  0  0  0  0  0  0  0  0  0  0
   17.5637  -21.7508  -17.3596 C   0  0  0  0  0  0  0  0  0  0  0  0
   18.4452  -22.4219  -16.5788 N   0  0  0  0  0  0  0  0  0  0  0  0
   20.5216  -20.8751  -14.1537 C   0  0  0  0  0  0  0  0  0  0  0  0
   19.4212  -20.0219  -14.3092 O   0  0  0  0  0  0  0  0  0  0  0  0
   20.6401  -21.3950  -13.0184 O   0  0  0  0  0  0  0  0  0  0  0  0
  2  3  1  0
  2  1  1  6
  4  2  1  0
  5  4  2  0
  7  6  1  1
  7  9  1  0
  8  7  1  0
  9 11  1  0
  9 10  1  1
 10  4  1  0
 11 13  1  0
 12 11  2  0
 13 14  1  0
 14 15  1  6
 14 21  1  0
 16 15  1  0
 17 16  2  0
 18 17  1  0
 19 18  1  0
 19 20  2  0
 20 16  1  0
 21 23  2  0
 21 22  1  0
M  END
$$$$
