ATH.pdb
     RDKit          3D

 23 23  0  0  1  0  0  0  0  0999 V2000
   46.2159  -18.9439  -11.9672 C   0  0  0  0  0  0  0  0  0  0  0  0
   45.6766  -19.5249  -10.6577 C   0  0  2  0  0  0  0  0  0  0  0  0
   44.9511  -20.7243  -11.0187 N   0  0  0  0  0  0  0  0  0  0  0  0
   44.7330  -18.5602  -10.0555 C   0  0  0  0  0  0  0  0  0  0  0  0
   43.6061  -18.4071  -10.5806 O   0  0  0  0  0  0  0  0  0  0  0  0
   43.7357  -18.2870   -6.2304 C   0  0  0  0  0  0  0  0  0  0  0  0
   44.2431  -16.9759   -6.7421 C   0  0  1  0  0  0  0  0  0  0  0  0
   45.5581  -16.8245   -6.3293 O   0  0  0  0  0  0  0  0  0  0  0  0
   44.1324  -16.8830   -8.2702 C   0  0  2  0  0  0  0  0  0  0  0  0
   45.0413  -17.7912   -8.9018 N   0  0  0  0  0  0  0  0  0  0  0  0
   44.4565  -15.4540   -8.6224 C   0  0  0  0  0  0  0  0  0  0  0  0
   45.6139  -15.1288   -9.0221 O   0  0  0  0  0  0  0  0  0  0  0  0
   43.4715  -14.4358   -8.5148 N   0  0  0  0  0  0  0  0  0  0  0  0
   43.7999  -13.0290   -8.8083 C   0  0  1  0  0  0  0  0  0  0  0  0
   42.5300  -12.2495   -8.5732 C   0  0  0  0  0  0  0  0  0  0  0  0
   42.7121  -10.8333   -8.8740 C   0  0  0  0  0  0  0  0  0  0  0  0
   43.1710  -10.3039  -10.0489 C   0  0  0  0  0  0  0  0  0  0  0  0
   43.2066   -8.9648   -9.9620 N   0  0  0  0  0  0  0  0  0  0  0  0
   42.7696   -8.6599   -8.7322 C   0  0  0  0  0  0  0  0  0  0  0  0
   42.4644   -9.7955   -8.0583 N   0  0  0  0  0  0  0  0  0  0  0  0
   44.8183  -12.5413   -7.8406 C   0  0  0  0  0  0  0  0  0  0  0  0
   44.7900  -12.9277   -6.4942 O   0  0  0  0  0  0  0  0  0  0  0  0
   45.7531  -11.7667   -8.1561 O   0  0  0  0  0  0  0  0  0  0  0  0
  2  3  1  0
  2  1  1  6
  4  2  1  0
  5  4  2  0
  7  6  1  6
  7  9  1  0
  8  7  1  0
  9 11  1  0
  9 10  1  6
 10  4  1  0
 11 13  1  0
 12 11  2  0
 13 14  1  0
 14 15  1  1
 14 21  1  0
 16 15  1  0
 17 16  2  0
 18 17  1  0
 19 18  1  0
 19 20  2  0
 20 16  1  0
 21 23  2  0
 21 22  1  0
M  END
$$$$
