YNE.pdb
     RDKit          3D

 30 30  0  0  1  0  0  0  0  0999 V2000
    5.9011  -10.1868   27.1548 O   0  0  0  0  0  0  0  0  0  0  0  0
    6.4288  -11.3394   26.5902 C   0  0  0  0  0  0  0  0  0  0  0  0
    6.8065  -11.4137   25.2681 C   0  0  0  0  0  0  0  0  0  0  0  0
    7.3331  -12.5752   24.7188 C   0  0  0  0  0  0  0  0  0  0  0  0
    7.5009  -13.7115   25.4810 C   0  0  0  0  0  0  0  0  0  0  0  0
    8.0620  -14.9600   24.9164 C   0  0  0  0  0  0  0  0  0  0  0  0
    7.0333  -15.7213   24.0680 C   0  0  2  0  0  0  0  0  0  0  0  0
    6.0462  -16.3266   24.9758 N   0  0  0  0  0  0  0  0  0  0  0  0
    7.7967  -16.8644   23.4923 C   0  0  0  0  0  0  0  0  0  0  0  0
    7.5924  -17.9888   23.9843 O   0  0  0  0  0  0  0  0  0  0  0  0
    7.1211  -13.6362   26.8095 C   0  0  0  0  0  0  0  0  0  0  0  0
    6.5960  -12.4753   27.3541 C   0  0  0  0  0  0  0  0  0  0  0  0
    7.2034  -18.0961   20.0408 N   0  0  0  0  0  0  0  0  0  0  0  0
    8.4282  -17.7116   19.4598 C   0  0  0  0  0  0  0  0  0  0  0  0
    8.4072  -17.5265   18.2009 O   0  0  0  0  0  0  0  0  0  0  0  0
    9.6260  -17.5476   20.2957 C   0  0  0  0  0  0  0  0  0  0  0  0
    9.3679  -17.8254   21.7556 C   0  0  2  0  0  0  0  0  0  0  0  0
    8.7275  -16.7247   22.4271 N   0  0  0  0  0  0  0  0  0  0  0  0
   10.6173  -18.2591   22.4183 C   0  0  0  0  0  0  0  0  0  0  0  0
   11.3082  -19.2389   22.0579 O   0  0  0  0  0  0  0  0  0  0  0  0
   11.0680  -17.5182   23.5394 N   0  0  0  0  0  0  0  0  0  0  0  0
   12.2652  -17.8877   24.2837 C   0  0  1  0  0  0  0  0  0  0  0  0
   13.2103  -16.7102   24.2427 C   0  0  0  0  0  0  0  0  0  0  0  0
   14.1293  -16.9236   23.0371 C   0  0  0  0  0  0  0  0  0  0  0  0
   14.7154  -15.6040   22.6801 C   0  0  0  0  0  0  0  0  0  0  0  0
   14.4467  -15.0365   21.5919 O   0  0  0  0  0  0  0  0  0  0  0  0
   11.8568  -18.0664   25.6985 C   0  0  0  0  0  0  0  0  0  0  0  0
   10.7456  -17.6289   26.0786 O   0  0  0  0  0  0  0  0  0  0  0  0
   15.5834  -14.9546   23.5452 O   0  0  0  0  0  0  0  0  0  0  0  0
   12.6630  -18.7024   26.6207 O   0  0  0  0  0  0  0  0  0  0  0  0
  2  1  1  0
  3  2  2  0
  4  3  1  0
  5  4  2  0
  5 11  1  0
  6  5  1  0
  7  6  1  0
  7  8  1  1
  9  7  1  0
  9 18  1  0
 10  9  2  0
 11 12  2  0
 12  2  1  0
 13 14  1  0
 14 15  2  0
 16 14  1  0
 17 16  1  6
 17 18  1  0
 19 17  1  0
 20 19  2  0
 21 19  1  0
 22 21  1  0
 22 27  1  0
 22 23  1  1
 24 23  1  0
 25 24  1  0
 26 25  2  0
 27 28  2  0
 27 30  1  0
 29 25  1  0
M  END
$$$$
