YNE.pdb
     RDKit          3D

 30 30  0  0  1  0  0  0  0  0999 V2000
    6.5609  -18.4968   12.2804 O   0  0  0  0  0  0  0  0  0  0  0  0
    7.7236  -18.1157   12.9350 C   0  0  0  0  0  0  0  0  0  0  0  0
    8.2250  -18.8008   14.0192 C   0  0  0  0  0  0  0  0  0  0  0  0
    9.3902  -18.4060   14.6628 C   0  0  0  0  0  0  0  0  0  0  0  0
   10.0993  -17.3023   14.2393 C   0  0  0  0  0  0  0  0  0  0  0  0
   11.3449  -16.8645   14.9095 C   0  0  0  0  0  0  0  0  0  0  0  0
   11.0607  -16.1074   16.2147 C   0  0  2  0  0  0  0  0  0  0  0  0
   10.3600  -14.8581   15.8785 N   0  0  0  0  0  0  0  0  0  0  0  0
   12.4048  -15.6894   16.7043 C   0  0  0  0  0  0  0  0  0  0  0  0
   13.1720  -15.1638   15.8776 O   0  0  0  0  0  0  0  0  0  0  0  0
    9.5950  -16.6142   13.1497 C   0  0  0  0  0  0  0  0  0  0  0  0
    8.4318  -17.0113   12.5100 C   0  0  0  0  0  0  0  0  0  0  0  0
   16.6443  -14.6605   19.3891 N   0  0  0  0  0  0  0  0  0  0  0  0
   15.8640  -13.7241   18.6822 C   0  0  0  0  0  0  0  0  0  0  0  0
   16.4112  -12.5938   18.4763 O   0  0  0  0  0  0  0  0  0  0  0  0
   14.5100  -14.0769   18.2321 C   0  0  0  0  0  0  0  0  0  0  0  0
   14.1425  -15.5079   18.5361 C   0  0  2  0  0  0  0  0  0  0  0  0
   12.8355  -15.8629   18.0477 N   0  0  0  0  0  0  0  0  0  0  0  0
   14.3138  -15.7802   19.9800 C   0  0  0  0  0  0  0  0  0  0  0  0
   13.7677  -15.1234   20.8953 O   0  0  0  0  0  0  0  0  0  0  0  0
   15.1529  -16.8576   20.3593 N   0  0  0  0  0  0  0  0  0  0  0  0
   15.2427  -17.3238   21.7372 C   0  0  1  0  0  0  0  0  0  0  0  0
   16.1471  -18.5335   21.7521 C   0  0  0  0  0  0  0  0  0  0  0  0
   15.3667  -19.6761   21.0970 C   0  0  0  0  0  0  0  0  0  0  0  0
   16.2709  -20.8550   21.0270 C   0  0  0  0  0  0  0  0  0  0  0  0
   16.8501  -21.3025   22.0482 O   0  0  0  0  0  0  0  0  0  0  0  0
   15.9293  -16.2599   22.5098 C   0  0  0  0  0  0  0  0  0  0  0  0
   16.1141  -16.4137   23.7396 O   0  0  0  0  0  0  0  0  0  0  0  0
   16.5037  -21.5016   19.8224 O   0  0  0  0  0  0  0  0  0  0  0  0
   16.3764  -15.0956   21.9186 O   0  0  0  0  0  0  0  0  0  0  0  0
  2  1  1  0
  3  2  2  0
  4  3  1  0
  5  4  2  0
  5 11  1  0
  6  5  1  0
  7  6  1  0
  7  8  1  6
  9  7  1  0
  9 18  1  0
 10  9  2  0
 11 12  2  0
 12  2  1  0
 13 14  1  0
 14 15  2  0
 16 14  1  0
 17 16  1  1
 17 18  1  0
 19 17  1  0
 20 19  2  0
 21 19  1  0
 22 21  1  0
 22 27  1  0
 22 23  1  6
 24 23  1  0
 25 24  1  0
 26 25  2  0
 27 28  2  0
 27 30  1  0
 29 25  1  0
M  END
$$$$
