YNE.pdb
     RDKit          3D

 30 30  0  0  1  0  0  0  0  0999 V2000
    4.8351  -12.8445   15.0650 O   0  0  0  0  0  0  0  0  0  0  0  0
    5.9612  -13.4369   15.6188 C   0  0  0  0  0  0  0  0  0  0  0  0
    6.7631  -14.3094   14.9175 C   0  0  0  0  0  0  0  0  0  0  0  0
    7.8867  -14.8934   15.4868 C   0  0  0  0  0  0  0  0  0  0  0  0
    8.2489  -14.6216   16.7888 C   0  0  0  0  0  0  0  0  0  0  0  0
    9.4438  -15.2317   17.4152 C   0  0  0  0  0  0  0  0  0  0  0  0
    9.8036  -14.5568   18.7466 C   0  0  2  0  0  0  0  0  0  0  0  0
   10.0182  -13.1235   18.4924 N   0  0  0  0  0  0  0  0  0  0  0  0
   11.1460  -15.1041   19.0920 C   0  0  0  0  0  0  0  0  0  0  0  0
   11.2358  -16.3362   19.2405 O   0  0  0  0  0  0  0  0  0  0  0  0
    7.4427  -13.7447   17.4931 C   0  0  0  0  0  0  0  0  0  0  0  0
    6.3221  -13.1638   16.9215 C   0  0  0  0  0  0  0  0  0  0  0  0
   16.7360  -15.3379   18.6816 N   0  0  0  0  0  0  0  0  0  0  0  0
   16.0443  -14.4893   19.5687 C   0  0  0  0  0  0  0  0  0  0  0  0
   16.6313  -14.2483   20.6718 O   0  0  0  0  0  0  0  0  0  0  0  0
   14.7313  -13.9421   19.1987 C   0  0  0  0  0  0  0  0  0  0  0  0
   13.5815  -14.7791   19.7014 C   0  0  2  0  0  0  0  0  0  0  0  0
   12.3020  -14.2932   19.2544 N   0  0  0  0  0  0  0  0  0  0  0  0
   13.6637  -14.9241   21.1712 C   0  0  0  0  0  0  0  0  0  0  0  0
   13.2121  -14.0937   21.9921 O   0  0  0  0  0  0  0  0  0  0  0  0
   14.2963  -16.0806   21.6917 N   0  0  0  0  0  0  0  0  0  0  0  0
   14.3241  -16.3745   23.1189 C   0  0  1  0  0  0  0  0  0  0  0  0
   12.9259  -16.7700   23.5312 C   0  0  0  0  0  0  0  0  0  0  0  0
   12.5869  -18.0529   22.7677 C   0  0  0  0  0  0  0  0  0  0  0  0
   11.4075  -18.6713   23.4303 C   0  0  0  0  0  0  0  0  0  0  0  0
   10.3354  -18.0367   23.5931 O   0  0  0  0  0  0  0  0  0  0  0  0
   15.1831  -17.5705   23.2974 C   0  0  0  0  0  0  0  0  0  0  0  0
   15.5060  -17.9297   24.4537 O   0  0  0  0  0  0  0  0  0  0  0  0
   11.4560  -19.9781   23.8922 O   0  0  0  0  0  0  0  0  0  0  0  0
   15.6446  -18.3094   22.2268 O   0  0  0  0  0  0  0  0  0  0  0  0
  2  1  1  0
  3  2  2  0
  4  3  1  0
  5  4  2  0
  5 11  1  0
  6  5  1  0
  7  6  1  0
  7  8  1  6
  9  7  1  0
  9 18  1  0
 10  9  2  0
 11 12  2  0
 12  2  1  0
 13 14  1  0
 14 15  2  0
 16 14  1  0
 17 16  1  1
 17 18  1  0
 19 17  1  0
 20 19  2  0
 21 19  1  0
 22 21  1  0
 22 27  1  0
 22 23  1  6
 24 23  1  0
 25 24  1  0
 26 25  2  0
 27 28  2  0
 27 30  1  0
 29 25  1  0
M  END
$$$$
