YNE.pdb
     RDKit          3D

 30 30  0  0  1  0  0  0  0  0999 V2000
    6.7572  -12.0018   29.3198 O   0  0  0  0  0  0  0  0  0  0  0  0
    7.0760  -12.6027   28.1103 C   0  0  0  0  0  0  0  0  0  0  0  0
    8.1353  -13.4709   27.9680 C   0  0  0  0  0  0  0  0  0  0  0  0
    8.4405  -14.0639   26.7502 C   0  0  0  0  0  0  0  0  0  0  0  0
    7.6893  -13.8056   25.6236 C   0  0  0  0  0  0  0  0  0  0  0  0
    7.9957  -14.4281   24.3156 C   0  0  0  0  0  0  0  0  0  0  0  0
    6.7411  -15.0064   23.6454 C   0  0  2  0  0  0  0  0  0  0  0  0
    6.4231  -16.2886   24.2933 N   0  0  0  0  0  0  0  0  0  0  0  0
    7.1827  -15.3572   22.2660 C   0  0  0  0  0  0  0  0  0  0  0  0
    7.2755  -16.5670   21.9899 O   0  0  0  0  0  0  0  0  0  0  0  0
    6.6249  -12.9330   25.7672 C   0  0  0  0  0  0  0  0  0  0  0  0
    6.3233  -12.3432   26.9842 C   0  0  0  0  0  0  0  0  0  0  0  0
    9.3674  -13.1784   16.9891 N   0  0  0  0  0  0  0  0  0  0  0  0
    8.2682  -13.7654   17.6468 C   0  0  0  0  0  0  0  0  0  0  0  0
    7.5585  -14.5511   16.9407 O   0  0  0  0  0  0  0  0  0  0  0  0
    7.9995  -13.4591   19.0589 C   0  0  0  0  0  0  0  0  0  0  0  0
    7.7936  -14.6938   19.9006 C   0  0  2  0  0  0  0  0  0  0  0  0
    7.4945  -14.3871   21.2751 N   0  0  0  0  0  0  0  0  0  0  0  0
    8.9460  -15.6088   19.7499 C   0  0  0  0  0  0  0  0  0  0  0  0
    9.0256  -16.5133   18.8879 O   0  0  0  0  0  0  0  0  0  0  0  0
   10.0383  -15.4560   20.6400 N   0  0  0  0  0  0  0  0  0  0  0  0
   11.1968  -16.3395   20.6062 C   0  0  1  0  0  0  0  0  0  0  0  0
   12.1800  -15.7660   19.6133 C   0  0  0  0  0  0  0  0  0  0  0  0
   12.8235  -14.5485   20.2823 C   0  0  0  0  0  0  0  0  0  0  0  0
   14.0582  -14.2184   19.5214 C   0  0  0  0  0  0  0  0  0  0  0  0
   14.0636  -13.3390   18.6241 O   0  0  0  0  0  0  0  0  0  0  0  0
   11.8368  -16.2646   21.9423 C   0  0  0  0  0  0  0  0  0  0  0  0
   11.3882  -15.4643   22.7959 O   0  0  0  0  0  0  0  0  0  0  0  0
   15.2507  -14.8767   19.7818 O   0  0  0  0  0  0  0  0  0  0  0  0
   12.9185  -17.0511   22.2834 O   0  0  0  0  0  0  0  0  0  0  0  0
  2  1  1  0
  3  2  2  0
  4  3  1  0
  5  4  2  0
  5 11  1  0
  6  5  1  0
  7  6  1  0
  7  8  1  1
  9  7  1  0
  9 18  1  0
 10  9  2  0
 11 12  2  0
 12  2  1  0
 13 14  1  0
 14 15  2  0
 16 14  1  0
 17 16  1  6
 17 18  1  0
 19 17  1  0
 20 19  2  0
 21 19  1  0
 22 21  1  0
 22 27  1  0
 22 23  1  6
 24 23  1  0
 25 24  1  0
 26 25  2  0
 27 28  2  0
 27 30  1  0
 29 25  1  0
M  END
$$$$
