YNE.pdb
     RDKit          3D

 30 30  0  0  1  0  0  0  0  0999 V2000
    7.9851  -12.9017   16.6651 O   0  0  0  0  0  0  0  0  0  0  0  0
    7.9450  -13.4089   17.9562 C   0  0  0  0  0  0  0  0  0  0  0  0
    8.4615  -14.6419   18.2868 C   0  0  0  0  0  0  0  0  0  0  0  0
    8.4132  -15.1345   19.5841 C   0  0  0  0  0  0  0  0  0  0  0  0
    7.8414  -14.4034   20.6032 C   0  0  0  0  0  0  0  0  0  0  0  0
    7.7807  -14.9085   21.9938 C   0  0  0  0  0  0  0  0  0  0  0  0
    6.8073  -16.0874   22.1359 C   0  0  2  0  0  0  0  0  0  0  0  0
    5.4355  -15.5671   22.0244 N   0  0  0  0  0  0  0  0  0  0  0  0
    6.9528  -16.5230   23.5537 C   0  0  0  0  0  0  0  0  0  0  0  0
    6.2963  -15.9016   24.4088 O   0  0  0  0  0  0  0  0  0  0  0  0
    7.3225  -13.1645   20.2704 C   0  0  0  0  0  0  0  0  0  0  0  0
    7.3725  -12.6762   18.9746 C   0  0  0  0  0  0  0  0  0  0  0  0
    8.1533  -18.9076   27.9452 N   0  0  0  0  0  0  0  0  0  0  0  0
    7.3324  -19.6523   27.0752 C   0  0  0  0  0  0  0  0  0  0  0  0
    6.7656  -20.6698   27.5879 O   0  0  0  0  0  0  0  0  0  0  0  0
    7.1721  -19.2403   25.6734 C   0  0  0  0  0  0  0  0  0  0  0  0
    7.9779  -18.0139   25.3242 C   0  0  2  0  0  0  0  0  0  0  0  0
    7.7922  -17.5960   23.9590 N   0  0  0  0  0  0  0  0  0  0  0  0
    9.3992  -18.2230   25.6767 C   0  0  0  0  0  0  0  0  0  0  0  0
    9.8090  -18.5287   26.8195 O   0  0  0  0  0  0  0  0  0  0  0  0
   10.3685  -18.0678   24.6543 N   0  0  0  0  0  0  0  0  0  0  0  0
   11.7951  -18.2257   24.9066 C   0  0  1  0  0  0  0  0  0  0  0  0
   12.4842  -16.9661   24.4377 C   0  0  0  0  0  0  0  0  0  0  0  0
   13.9681  -17.1210   24.7805 C   0  0  0  0  0  0  0  0  0  0  0  0
   14.7502  -16.4810   23.6891 C   0  0  0  0  0  0  0  0  0  0  0  0
   15.6597  -15.6487   23.9312 O   0  0  0  0  0  0  0  0  0  0  0  0
   11.9692  -18.2927   26.3782 C   0  0  0  0  0  0  0  0  0  0  0  0
   12.9361  -18.9312   26.8555 O   0  0  0  0  0  0  0  0  0  0  0  0
   14.4972  -16.7865   22.3602 O   0  0  0  0  0  0  0  0  0  0  0  0
   11.0971  -17.6721   27.2496 O   0  0  0  0  0  0  0  0  0  0  0  0
  2  1  1  0
  3  2  2  0
  4  3  1  0
  5  4  2  0
  5 11  1  0
  6  5  1  0
  7  6  1  0
  7  8  1  1
  9  7  1  0
  9 18  1  0
 10  9  2  0
 11 12  2  0
 12  2  1  0
 13 14  1  0
 14 15  2  0
 16 14  1  0
 17 16  1  6
 17 18  1  0
 19 17  1  0
 20 19  2  0
 21 19  1  0
 22 21  1  0
 22 27  1  0
 22 23  1  1
 24 23  1  0
 25 24  1  0
 26 25  2  0
 27 28  2  0
 27 30  1  0
 29 25  1  0
M  END
$$$$
