YNE.pdb
     RDKit          3D

 30 30  0  0  1  0  0  0  0  0999 V2000
    7.9911  -12.2256   17.4182 O   0  0  0  0  0  0  0  0  0  0  0  0
    7.8552  -12.9090   18.6182 C   0  0  0  0  0  0  0  0  0  0  0  0
    8.8028  -13.7947   19.0807 C   0  0  0  0  0  0  0  0  0  0  0  0
    8.6513  -14.4703   20.2842 C   0  0  0  0  0  0  0  0  0  0  0  0
    7.5365  -14.2807   21.0725 C   0  0  0  0  0  0  0  0  0  0  0  0
    7.3553  -14.9891   22.3600 C   0  0  0  0  0  0  0  0  0  0  0  0
    8.4867  -15.9915   22.6296 C   0  0  2  0  0  0  0  0  0  0  0  0
    8.4444  -17.0251   21.5832 N   0  0  0  0  0  0  0  0  0  0  0  0
    8.0820  -16.6823   23.8866 C   0  0  0  0  0  0  0  0  0  0  0  0
    7.7103  -15.9660   24.8337 O   0  0  0  0  0  0  0  0  0  0  0  0
    6.5846  -13.3905   20.6073 C   0  0  0  0  0  0  0  0  0  0  0  0
    6.7393  -12.7180   19.4056 C   0  0  0  0  0  0  0  0  0  0  0  0
    5.7136  -19.0626   23.7636 N   0  0  0  0  0  0  0  0  0  0  0  0
    6.2314  -20.2330   24.3530 C   0  0  0  0  0  0  0  0  0  0  0  0
    5.5806  -21.3017   24.1210 O   0  0  0  0  0  0  0  0  0  0  0  0
    7.4484  -20.1729   25.1749 C   0  0  0  0  0  0  0  0  0  0  0  0
    8.0012  -18.7757   25.3075 C   0  0  2  0  0  0  0  0  0  0  0  0
    8.1028  -18.0949   24.0431 N   0  0  0  0  0  0  0  0  0  0  0  0
    9.2783  -18.8038   26.0534 C   0  0  0  0  0  0  0  0  0  0  0  0
   10.2394  -19.5603   25.7859 O   0  0  0  0  0  0  0  0  0  0  0  0
    9.4301  -17.9156   27.1473 N   0  0  0  0  0  0  0  0  0  0  0  0
   10.6846  -17.7918   27.8786 C   0  0  1  0  0  0  0  0  0  0  0  0
   10.8807  -16.3302   28.2053 C   0  0  0  0  0  0  0  0  0  0  0  0
    9.5077  -15.7773   28.5961 C   0  0  0  0  0  0  0  0  0  0  0  0
    9.6539  -14.3102   28.7930 C   0  0  0  0  0  0  0  0  0  0  0  0
   10.7824  -13.7586   28.8206 O   0  0  0  0  0  0  0  0  0  0  0  0
   10.5057  -18.5037   29.1676 C   0  0  0  0  0  0  0  0  0  0  0  0
   11.4653  -18.5741   29.9705 O   0  0  0  0  0  0  0  0  0  0  0  0
    8.5397  -13.5001   28.9532 O   0  0  0  0  0  0  0  0  0  0  0  0
    9.3102  -19.0974   29.5187 O   0  0  0  0  0  0  0  0  0  0  0  0
  2  1  1  0
  3  2  2  0
  4  3  1  0
  5  4  2  0
  5 11  1  0
  6  5  1  0
  7  6  1  0
  7  8  1  6
  9  7  1  0
  9 18  1  0
 10  9  2  0
 11 12  2  0
 12  2  1  0
 13 14  1  0
 14 15  2  0
 16 14  1  0
 17 16  1  6
 17 18  1  0
 19 17  1  0
 20 19  2  0
 21 19  1  0
 22 21  1  0
 22 27  1  0
 22 23  1  1
 24 23  1  0
 25 24  1  0
 26 25  2  0
 27 28  2  0
 27 30  1  0
 29 25  1  0
M  END
$$$$
