YNE.pdb
     RDKit          3D

 30 30  0  0  1  0  0  0  0  0999 V2000
    7.1985  -12.0142   28.8949 O   0  0  0  0  0  0  0  0  0  0  0  0
    7.1727  -12.3529   27.5495 C   0  0  0  0  0  0  0  0  0  0  0  0
    8.2265  -12.1017   26.6994 C   0  0  0  0  0  0  0  0  0  0  0  0
    8.1844  -12.4473   25.3553 C   0  0  0  0  0  0  0  0  0  0  0  0
    7.0764  -13.0615   24.8117 C   0  0  0  0  0  0  0  0  0  0  0  0
    7.0108  -13.4403   23.3818 C   0  0  0  0  0  0  0  0  0  0  0  0
    7.2289  -14.9460   23.1748 C   0  0  2  0  0  0  0  0  0  0  0  0
    8.5602  -15.2938   23.6960 N   0  0  0  0  0  0  0  0  0  0  0  0
    7.3261  -15.1095   21.6967 C   0  0  0  0  0  0  0  0  0  0  0  0
    6.2844  -14.9417   21.0372 O   0  0  0  0  0  0  0  0  0  0  0  0
    6.0178  -13.3137   25.6665 C   0  0  0  0  0  0  0  0  0  0  0  0
    6.0635  -12.9673   27.0074 C   0  0  0  0  0  0  0  0  0  0  0  0
    8.5380  -11.9919   19.6359 N   0  0  0  0  0  0  0  0  0  0  0  0
    9.0712  -13.1755   19.0881 C   0  0  0  0  0  0  0  0  0  0  0  0
   10.3156  -13.1489   18.8235 O   0  0  0  0  0  0  0  0  0  0  0  0
    8.2053  -14.3402   18.8557 C   0  0  0  0  0  0  0  0  0  0  0  0
    8.6628  -15.5716   19.5972 C   0  0  2  0  0  0  0  0  0  0  0  0
    8.5340  -15.4415   21.0252 N   0  0  0  0  0  0  0  0  0  0  0  0
   10.0301  -15.9418   19.1713 C   0  0  0  0  0  0  0  0  0  0  0  0
   10.5457  -15.6143   18.0784 O   0  0  0  0  0  0  0  0  0  0  0  0
   10.8153  -16.7212   20.0572 N   0  0  0  0  0  0  0  0  0  0  0  0
   12.2412  -16.9362   19.8464 C   0  0  1  0  0  0  0  0  0  0  0  0
   12.9307  -15.5999   19.9887 C   0  0  0  0  0  0  0  0  0  0  0  0
   14.4361  -15.8713   19.9278 C   0  0  0  0  0  0  0  0  0  0  0  0
   15.1320  -14.5583   19.9929 C   0  0  0  0  0  0  0  0  0  0  0  0
   15.0957  -13.7454   19.0356 O   0  0  0  0  0  0  0  0  0  0  0  0
   12.7189  -17.7911   20.9604 C   0  0  0  0  0  0  0  0  0  0  0  0
   13.8810  -18.2588   20.9231 O   0  0  0  0  0  0  0  0  0  0  0  0
   15.8479  -14.1887   21.1217 O   0  0  0  0  0  0  0  0  0  0  0  0
   11.9233  -18.0937   22.0469 O   0  0  0  0  0  0  0  0  0  0  0  0
  2  1  1  0
  3  2  2  0
  4  3  1  0
  5  4  2  0
  5 11  1  0
  6  5  1  0
  7  6  1  0
  7  8  1  1
  9  7  1  0
  9 18  1  0
 10  9  2  0
 11 12  2  0
 12  2  1  0
 13 14  1  0
 14 15  2  0
 16 14  1  0
 17 16  1  6
 17 18  1  0
 19 17  1  0
 20 19  2  0
 21 19  1  0
 22 21  1  0
 22 27  1  0
 22 23  1  1
 24 23  1  0
 25 24  1  0
 26 25  2  0
 27 28  2  0
 27 30  1  0
 29 25  1  0
M  END
$$$$
