YNE.pdb
     RDKit          3D

 30 30  0  0  1  0  0  0  0  0999 V2000
    6.0528  -10.8357   28.6733 O   0  0  0  0  0  0  0  0  0  0  0  0
    6.5575  -11.7135   27.7243 C   0  0  0  0  0  0  0  0  0  0  0  0
    7.0415  -12.9611   28.0488 C   0  0  0  0  0  0  0  0  0  0  0  0
    7.5430  -13.8275   27.0866 C   0  0  0  0  0  0  0  0  0  0  0  0
    7.5774  -13.4712   25.7554 C   0  0  0  0  0  0  0  0  0  0  0  0
    8.1060  -14.3798   24.7126 C   0  0  0  0  0  0  0  0  0  0  0  0
    6.9835  -15.0132   23.8781 C   0  0  2  0  0  0  0  0  0  0  0  0
    6.2915  -16.0053   24.7158 N   0  0  0  0  0  0  0  0  0  0  0  0
    7.6949  -15.8025   22.8332 C   0  0  0  0  0  0  0  0  0  0  0  0
    7.5626  -17.0393   22.8677 O   0  0  0  0  0  0  0  0  0  0  0  0
    7.0908  -12.2173   25.4299 C   0  0  0  0  0  0  0  0  0  0  0  0
    6.5911  -11.3554   26.3930 C   0  0  0  0  0  0  0  0  0  0  0  0
    7.8469  -13.1748   18.8396 N   0  0  0  0  0  0  0  0  0  0  0  0
    8.0189  -14.5653   18.9890 C   0  0  0  0  0  0  0  0  0  0  0  0
    7.0216  -15.2830   18.6580 O   0  0  0  0  0  0  0  0  0  0  0  0
    9.2877  -15.1046   19.4986 C   0  0  0  0  0  0  0  0  0  0  0  0
    9.1153  -15.9403   20.7424 C   0  0  2  0  0  0  0  0  0  0  0  0
    8.4999  -15.2124   21.8213 N   0  0  0  0  0  0  0  0  0  0  0  0
   10.4051  -16.5569   21.1224 C   0  0  0  0  0  0  0  0  0  0  0  0
   11.1022  -17.2680   20.3636 O   0  0  0  0  0  0  0  0  0  0  0  0
   10.8901  -16.3307   22.4348 N   0  0  0  0  0  0  0  0  0  0  0  0
   12.0793  -16.9980   22.9488 C   0  0  1  0  0  0  0  0  0  0  0  0
   13.0281  -15.9290   23.4369 C   0  0  0  0  0  0  0  0  0  0  0  0
   13.9645  -15.6039   22.2702 C   0  0  0  0  0  0  0  0  0  0  0  0
   15.3174  -15.3555   22.8361 C   0  0  0  0  0  0  0  0  0  0  0  0
   16.2942  -15.0606   22.1029 O   0  0  0  0  0  0  0  0  0  0  0  0
   11.6574  -17.7785   24.1377 C   0  0  0  0  0  0  0  0  0  0  0  0
   12.4717  -18.5604   24.6816 O   0  0  0  0  0  0  0  0  0  0  0  0
   15.5434  -15.4423   24.2017 O   0  0  0  0  0  0  0  0  0  0  0  0
   10.3890  -17.6744   24.6719 O   0  0  0  0  0  0  0  0  0  0  0  0
  2  1  1  0
  3  2  2  0
  4  3  1  0
  5  4  2  0
  5 11  1  0
  6  5  1  0
  7  6  1  0
  7  8  1  1
  9  7  1  0
  9 18  1  0
 10  9  2  0
 11 12  2  0
 12  2  1  0
 13 14  1  0
 14 15  2  0
 16 14  1  0
 17 16  1  6
 17 18  1  0
 19 17  1  0
 20 19  2  0
 21 19  1  0
 22 21  1  0
 22 27  1  0
 22 23  1  1
 24 23  1  0
 25 24  1  0
 26 25  2  0
 27 28  2  0
 27 30  1  0
 29 25  1  0
M  END
$$$$
