YNE.pdb
     RDKit          3D

 30 30  0  0  1  0  0  0  0  0999 V2000
    7.4691  -12.7681   16.1508 O   0  0  0  0  0  0  0  0  0  0  0  0
    7.6067  -13.2302   17.4519 C   0  0  0  0  0  0  0  0  0  0  0  0
    8.3738  -14.3276   17.7738 C   0  0  0  0  0  0  0  0  0  0  0  0
    8.5010  -14.7768   19.0814 C   0  0  0  0  0  0  0  0  0  0  0  0
    7.8590  -14.1375   20.1202 C   0  0  0  0  0  0  0  0  0  0  0  0
    7.9821  -14.5982   21.5220 C   0  0  0  0  0  0  0  0  0  0  0  0
    8.7753  -15.9085   21.6296 C   0  0  2  0  0  0  0  0  0  0  0  0
    8.1302  -16.9090   20.7647 N   0  0  0  0  0  0  0  0  0  0  0  0
    8.5365  -16.3762   23.0243 C   0  0  0  0  0  0  0  0  0  0  0  0
    8.9054  -15.6259   23.9458 O   0  0  0  0  0  0  0  0  0  0  0  0
    7.0882  -13.0347   19.7962 C   0  0  0  0  0  0  0  0  0  0  0  0
    6.9637  -12.5893   18.4900 C   0  0  0  0  0  0  0  0  0  0  0  0
    6.7043  -19.7024   22.6358 N   0  0  0  0  0  0  0  0  0  0  0  0
    6.0058  -19.6417   23.8580 C   0  0  0  0  0  0  0  0  0  0  0  0
    4.9473  -20.3450   23.9236 O   0  0  0  0  0  0  0  0  0  0  0  0
    6.5074  -18.8053   24.9576 C   0  0  0  0  0  0  0  0  0  0  0  0
    7.8482  -18.1821   24.6592 C   0  0  2  0  0  0  0  0  0  0  0  0
    7.9177  -17.6170   23.3369 N   0  0  0  0  0  0  0  0  0  0  0  0
    8.9308  -19.1529   24.9307 C   0  0  0  0  0  0  0  0  0  0  0  0
    8.8330  -20.3897   24.7628 O   0  0  0  0  0  0  0  0  0  0  0  0
   10.1661  -18.6544   25.4147 N   0  0  0  0  0  0  0  0  0  0  0  0
   11.3176  -19.5189   25.6397 C   0  0  1  0  0  0  0  0  0  0  0  0
   12.2865  -19.2944   24.5029 C   0  0  0  0  0  0  0  0  0  0  0  0
   12.4913  -17.7814   24.3898 C   0  0  0  0  0  0  0  0  0  0  0  0
   13.4708  -17.5414   23.2965 C   0  0  0  0  0  0  0  0  0  0  0  0
   14.6918  -17.8020   23.4371 O   0  0  0  0  0  0  0  0  0  0  0  0
   11.9824  -19.0405   26.8765 C   0  0  0  0  0  0  0  0  0  0  0  0
   12.9648  -19.6718   27.3312 O   0  0  0  0  0  0  0  0  0  0  0  0
   13.0624  -17.0186   22.0786 O   0  0  0  0  0  0  0  0  0  0  0  0
   11.5547  -17.9152   27.5516 O   0  0  0  0  0  0  0  0  0  0  0  0
  2  1  1  0
  3  2  2  0
  4  3  1  0
  5  4  2  0
  5 11  1  0
  6  5  1  0
  7  6  1  0
  7  8  1  6
  9  7  1  0
  9 18  1  0
 10  9  2  0
 11 12  2  0
 12  2  1  0
 13 14  1  0
 14 15  2  0
 16 14  1  0
 17 16  1  6
 17 18  1  0
 19 17  1  0
 20 19  2  0
 21 19  1  0
 22 21  1  0
 22 27  1  0
 22 23  1  6
 24 23  1  0
 25 24  1  0
 26 25  2  0
 27 28  2  0
 27 30  1  0
 29 25  1  0
M  END
$$$$
