YNE.pdb
     RDKit          3D

 30 30  0  0  1  0  0  0  0  0999 V2000
    5.4023  -10.5682   27.6522 O   0  0  0  0  0  0  0  0  0  0  0  0
    6.0696  -11.5012   26.8712 C   0  0  0  0  0  0  0  0  0  0  0  0
    5.8406  -11.6397   25.5204 C   0  0  0  0  0  0  0  0  0  0  0  0
    6.5173  -12.5786   24.7533 C   0  0  0  0  0  0  0  0  0  0  0  0
    7.4542  -13.4179   25.3170 C   0  0  0  0  0  0  0  0  0  0  0  0
    8.1887  -14.4248   24.5176 C   0  0  0  0  0  0  0  0  0  0  0  0
    7.2513  -15.4920   23.9345 C   0  0  2  0  0  0  0  0  0  0  0  0
    6.7531  -16.3216   25.0428 N   0  0  0  0  0  0  0  0  0  0  0  0
    8.1461  -16.3827   23.1428 C   0  0  0  0  0  0  0  0  0  0  0  0
    8.5596  -17.4144   23.7021 O   0  0  0  0  0  0  0  0  0  0  0  0
    7.6839  -13.2782   26.6745 C   0  0  0  0  0  0  0  0  0  0  0  0
    7.0066  -12.3400   27.4369 C   0  0  0  0  0  0  0  0  0  0  0  0
    7.8936  -17.7597   18.3399 N   0  0  0  0  0  0  0  0  0  0  0  0
    8.3121  -16.5406   18.9092 C   0  0  0  0  0  0  0  0  0  0  0  0
    7.5135  -15.5607   18.7626 O   0  0  0  0  0  0  0  0  0  0  0  0
    9.5972  -16.4559   19.6175 C   0  0  0  0  0  0  0  0  0  0  0  0
    9.5019  -16.8767   21.0629 C   0  0  2  0  0  0  0  0  0  0  0  0
    8.5369  -16.1073   21.8042 N   0  0  0  0  0  0  0  0  0  0  0  0
   10.8450  -16.8713   21.6826 C   0  0  0  0  0  0  0  0  0  0  0  0
   11.5414  -15.8457   21.8575 O   0  0  0  0  0  0  0  0  0  0  0  0
   11.3862  -18.1097   22.1097 N   0  0  0  0  0  0  0  0  0  0  0  0
   12.4530  -18.1908   23.0993 C   0  0  1  0  0  0  0  0  0  0  0  0
   11.8198  -18.5363   24.4264 C   0  0  0  0  0  0  0  0  0  0  0  0
   12.9628  -18.6983   25.4318 C   0  0  0  0  0  0  0  0  0  0  0  0
   12.3585  -19.0416   26.7469 C   0  0  0  0  0  0  0  0  0  0  0  0
   11.4544  -18.3365   27.2606 O   0  0  0  0  0  0  0  0  0  0  0  0
   13.3111  -19.3387   22.7168 C   0  0  0  0  0  0  0  0  0  0  0  0
   12.8515  -20.2261   21.9607 O   0  0  0  0  0  0  0  0  0  0  0  0
   12.7783  -20.1600   27.4516 O   0  0  0  0  0  0  0  0  0  0  0  0
   14.6094  -19.4669   23.1672 O   0  0  0  0  0  0  0  0  0  0  0  0
  2  1  1  0
  3  2  2  0
  4  3  1  0
  5  4  2  0
  5 11  1  0
  6  5  1  0
  7  6  1  0
  7  8  1  1
  9  7  1  0
  9 18  1  0
 10  9  2  0
 11 12  2  0
 12  2  1  0
 13 14  1  0
 14 15  2  0
 16 14  1  0
 17 16  1  6
 17 18  1  0
 19 17  1  0
 20 19  2  0
 21 19  1  0
 22 21  1  0
 22 27  1  0
 22 23  1  1
 24 23  1  0
 25 24  1  0
 26 25  2  0
 27 28  2  0
 27 30  1  0
 29 25  1  0
M  END
$$$$
