AQD.pdb
     RDKit          3D

 23 22  0  0  1  0  0  0  0  0999 V2000
    7.6307  -13.0758   19.2482 C   0  0  0  0  0  0  0  0  0  0  0  0
    7.9627  -14.3796   19.9200 C   0  0  2  0  0  0  0  0  0  0  0  0
    6.7815  -15.2167   20.0744 N   0  0  0  0  0  0  0  0  0  0  0  0
    8.5302  -14.1789   21.2894 C   0  0  0  0  0  0  0  0  0  0  0  0
    9.6821  -13.7049   21.4836 O   0  0  0  0  0  0  0  0  0  0  0  0
    5.5722  -12.6928   26.4098 N   0  0  0  0  0  0  0  0  0  0  0  0
    6.8836  -12.8117   26.9208 C   0  0  0  0  0  0  0  0  0  0  0  0
    7.1297  -12.3957   28.0701 O   0  0  0  0  0  0  0  0  0  0  0  0
    7.9297  -13.4265   26.0787 C   0  0  0  0  0  0  0  0  0  0  0  0
    7.3526  -13.7298   24.7436 C   0  0  0  0  0  0  0  0  0  0  0  0
    8.3218  -14.3481   23.7722 C   0  0  2  0  0  0  0  0  0  0  0  0
    7.7773  -14.5222   22.4625 N   0  0  0  0  0  0  0  0  0  0  0  0
    8.8669  -15.6343   24.3271 C   0  0  0  0  0  0  0  0  0  0  0  0
    8.1995  -16.6984   24.2649 O   0  0  0  0  0  0  0  0  0  0  0  0
   10.1437  -15.7065   24.9392 N   0  0  0  0  0  0  0  0  0  0  0  0
   10.6331  -17.0074   25.4678 C   0  0  1  0  0  0  0  0  0  0  0  0
   12.0801  -17.1482   25.1082 C   0  0  0  0  0  0  0  0  0  0  0  0
   12.4242  -16.9382   23.7034 C   0  0  0  0  0  0  0  0  0  0  0  0
   11.9161  -17.6114   22.7923 O   0  0  0  0  0  0  0  0  0  0  0  0
   10.4235  -16.9847   26.9295 C   0  0  0  0  0  0  0  0  0  0  0  0
    9.9477  -15.9983   27.5141 O   0  0  0  0  0  0  0  0  0  0  0  0
   13.3460  -15.9575   23.3770 O   0  0  0  0  0  0  0  0  0  0  0  0
   10.7754  -18.1152   27.6705 O   0  0  0  0  0  0  0  0  0  0  0  0
  2  4  1  0
  2  1  1  1
  2  3  1  0
  4  5  2  0
  6  7  1  0
  7  8  2  0
  7  9  1  0
  9 10  1  0
 11 10  1  1
 11 13  1  0
 12 11  1  0
 12  4  1  0
 13 14  2  0
 13 15  1  0
 15 16  1  0
 16 17  1  1
 17 18  1  0
 18 19  2  0
 18 22  1  0
 20 23  1  0
 20 16  1  0
 21 20  2  0
M  END
$$$$
