AQD.pdb
     RDKit          3D

 23 22  0  0  1  0  0  0  0  0999 V2000
    7.3530  -14.9009   18.8499 C   0  0  0  0  0  0  0  0  0  0  0  0
    7.4865  -13.5547   19.5065 C   0  0  2  0  0  0  0  0  0  0  0  0
    8.3673  -12.6764   18.7496 N   0  0  0  0  0  0  0  0  0  0  0  0
    8.0590  -13.6548   20.8849 C   0  0  0  0  0  0  0  0  0  0  0  0
    9.3002  -13.6763   21.1040 O   0  0  0  0  0  0  0  0  0  0  0  0
    6.7172  -11.6604   27.6021 N   0  0  0  0  0  0  0  0  0  0  0  0
    6.2931  -12.6489   26.6866 C   0  0  0  0  0  0  0  0  0  0  0  0
    5.0893  -12.9717   26.6529 O   0  0  0  0  0  0  0  0  0  0  0  0
    7.2886  -13.2743   25.7925 C   0  0  0  0  0  0  0  0  0  0  0  0
    6.7767  -13.2270   24.3985 C   0  0  0  0  0  0  0  0  0  0  0  0
    7.7471  -13.7254   23.3617 C   0  0  2  0  0  0  0  0  0  0  0  0
    7.2077  -13.7320   22.0383 N   0  0  0  0  0  0  0  0  0  0  0  0
    8.2826  -15.0737   23.7544 C   0  0  0  0  0  0  0  0  0  0  0  0
    7.6673  -16.1270   23.4483 O   0  0  0  0  0  0  0  0  0  0  0  0
    9.4922  -15.2190   24.4797 N   0  0  0  0  0  0  0  0  0  0  0  0
   10.0610  -16.5757   24.6966 C   0  0  1  0  0  0  0  0  0  0  0  0
   11.4298  -16.6156   24.0903 C   0  0  0  0  0  0  0  0  0  0  0  0
   12.1980  -17.8412   24.2993 C   0  0  0  0  0  0  0  0  0  0  0  0
   11.7437  -18.8029   24.9399 O   0  0  0  0  0  0  0  0  0  0  0  0
   10.0929  -16.8012   26.1558 C   0  0  0  0  0  0  0  0  0  0  0  0
   10.4356  -17.8874   26.6498 O   0  0  0  0  0  0  0  0  0  0  0  0
   13.4729  -17.9341   23.7665 O   0  0  0  0  0  0  0  0  0  0  0  0
    9.7233  -15.7518   27.0001 O   0  0  0  0  0  0  0  0  0  0  0  0
  2  4  1  0
  2  1  1  6
  2  3  1  0
  4  5  2  0
  6  7  1  0
  7  8  2  0
  7  9  1  0
  9 10  1  0
 11 10  1  1
 11 13  1  0
 12 11  1  0
 12  4  1  0
 13 14  2  0
 13 15  1  0
 15 16  1  0
 16 17  1  1
 17 18  1  0
 18 19  2  0
 18 22  1  0
 20 23  1  0
 20 16  1  0
 21 20  2  0
M  END
$$$$
