AQD.pdb
     RDKit          3D

 23 22  0  0  1  0  0  0  0  0999 V2000
    8.1087  -20.1208   21.0237 C   0  0  0  0  0  0  0  0  0  0  0  0
    7.4128  -18.7881   20.9935 C   0  0  2  0  0  0  0  0  0  0  0  0
    6.2541  -18.8108   20.1121 N   0  0  0  0  0  0  0  0  0  0  0  0
    8.3082  -17.6964   20.4996 C   0  0  0  0  0  0  0  0  0  0  0  0
    9.4308  -17.9255   19.9736 O   0  0  0  0  0  0  0  0  0  0  0  0
    8.3705  -13.3773   17.3012 N   0  0  0  0  0  0  0  0  0  0  0  0
    9.3952  -13.1273   18.2407 C   0  0  0  0  0  0  0  0  0  0  0  0
   10.5847  -13.1615   17.8683 O   0  0  0  0  0  0  0  0  0  0  0  0
    9.0297  -12.8315   19.6408 C   0  0  0  0  0  0  0  0  0  0  0  0
    8.1530  -13.9192   20.1467 C   0  0  0  0  0  0  0  0  0  0  0  0
    8.8183  -15.2664   20.2316 C   0  0  2  0  0  0  0  0  0  0  0  0
    7.9239  -16.3171   20.6036 N   0  0  0  0  0  0  0  0  0  0  0  0
   10.0137  -15.2012   21.1404 C   0  0  0  0  0  0  0  0  0  0  0  0
    9.9162  -14.7308   22.3027 O   0  0  0  0  0  0  0  0  0  0  0  0
   11.2917  -15.6615   20.7343 N   0  0  0  0  0  0  0  0  0  0  0  0
   12.4487  -15.5302   21.6592 C   0  0  1  0  0  0  0  0  0  0  0  0
   12.8996  -16.9042   22.0484 C   0  0  0  0  0  0  0  0  0  0  0  0
   12.2489  -17.4956   23.2157 C   0  0  0  0  0  0  0  0  0  0  0  0
   11.6059  -18.5554   23.1458 O   0  0  0  0  0  0  0  0  0  0  0  0
   13.4977  -14.7858   20.9337 C   0  0  0  0  0  0  0  0  0  0  0  0
   14.5477  -14.4169   21.4840 O   0  0  0  0  0  0  0  0  0  0  0  0
   12.3520  -16.8546   24.4390 O   0  0  0  0  0  0  0  0  0  0  0  0
   13.2930  -14.4915   19.5838 O   0  0  0  0  0  0  0  0  0  0  0  0
  2  4  1  0
  2  1  1  6
  2  3  1  0
  4  5  2  0
  6  7  1  0
  7  8  2  0
  7  9  1  0
  9 10  1  0
 11 10  1  1
 11 13  1  0
 12 11  1  0
 12  4  1  0
 13 14  2  0
 13 15  1  0
 15 16  1  0
 16 17  1  6
 17 18  1  0
 18 19  2  0
 18 22  1  0
 20 23  1  0
 20 16  1  0
 21 20  2  0
M  END
$$$$
