AQD.pdb
     RDKit          3D

 23 22  0  0  1  0  0  0  0  0999 V2000
   14.5136  -16.5618   17.0192 C   0  0  0  0  0  0  0  0  0  0  0  0
   14.3066  -15.0769   17.1358 C   0  0  2  0  0  0  0  0  0  0  0  0
   15.5737  -14.3683   17.2471 N   0  0  0  0  0  0  0  0  0  0  0  0
   13.5024  -14.7135   18.3436 C   0  0  0  0  0  0  0  0  0  0  0  0
   14.0284  -14.4954   19.4683 O   0  0  0  0  0  0  0  0  0  0  0  0
    7.5021  -12.9325   18.5769 N   0  0  0  0  0  0  0  0  0  0  0  0
    7.7509  -13.1438   19.9511 C   0  0  0  0  0  0  0  0  0  0  0  0
    6.8810  -12.8218   20.7843 O   0  0  0  0  0  0  0  0  0  0  0  0
    9.0367  -13.7414   20.3647 C   0  0  0  0  0  0  0  0  0  0  0  0
    9.8817  -13.9412   19.1591 C   0  0  0  0  0  0  0  0  0  0  0  0
   11.2880  -14.3902   19.4519 C   0  0  2  0  0  0  0  0  0  0  0  0
   12.0734  -14.5949   18.2757 N   0  0  0  0  0  0  0  0  0  0  0  0
   11.2737  -15.6071   20.3339 C   0  0  0  0  0  0  0  0  0  0  0  0
   11.2433  -16.7629   19.8391 O   0  0  0  0  0  0  0  0  0  0  0  0
   11.2936  -15.5096   21.7482 N   0  0  0  0  0  0  0  0  0  0  0  0
   11.3069  -16.7485   22.5706 C   0  0  1  0  0  0  0  0  0  0  0  0
   12.4694  -16.6771   23.5121 C   0  0  0  0  0  0  0  0  0  0  0  0
   12.5653  -17.7419   24.5085 C   0  0  0  0  0  0  0  0  0  0  0  0
   11.7232  -18.6510   24.5851 O   0  0  0  0  0  0  0  0  0  0  0  0
   10.0158  -16.8050   23.2852 C   0  0  0  0  0  0  0  0  0  0  0  0
    9.5477  -17.8687   23.7222 O   0  0  0  0  0  0  0  0  0  0  0  0
   13.6286  -17.7377   25.3959 O   0  0  0  0  0  0  0  0  0  0  0  0
    9.3047  -15.6173   23.4710 O   0  0  0  0  0  0  0  0  0  0  0  0
  2  4  1  0
  2  1  1  1
  2  3  1  0
  4  5  2  0
  6  7  1  0
  7  8  2  0
  7  9  1  0
  9 10  1  0
 11 10  1  6
 11 13  1  0
 12 11  1  0
 12  4  1  0
 13 14  2  0
 13 15  1  0
 15 16  1  0
 16 17  1  1
 17 18  1  0
 18 19  2  0
 18 22  1  0
 20 23  1  0
 20 16  1  0
 21 20  2  0
M  END
$$$$
