AQD.pdb
     RDKit          3D

 23 22  0  0  1  0  0  0  0  0999 V2000
    7.0436  -14.9028   19.0534 C   0  0  0  0  0  0  0  0  0  0  0  0
    7.2867  -13.5435   19.6490 C   0  0  2  0  0  0  0  0  0  0  0  0
    8.1653  -12.7419   18.8090 N   0  0  0  0  0  0  0  0  0  0  0  0
    7.9348  -13.6260   20.9946 C   0  0  0  0  0  0  0  0  0  0  0  0
    9.1854  -13.6831   21.1429 O   0  0  0  0  0  0  0  0  0  0  0  0
    6.3571  -13.2233   28.1282 N   0  0  0  0  0  0  0  0  0  0  0  0
    6.4690  -12.5623   26.8850 C   0  0  0  0  0  0  0  0  0  0  0  0
    5.7124  -11.6033   26.6346 O   0  0  0  0  0  0  0  0  0  0  0  0
    7.4807  -13.0254   25.9137 C   0  0  0  0  0  0  0  0  0  0  0  0
    6.8453  -13.1325   24.5749 C   0  0  0  0  0  0  0  0  0  0  0  0
    7.7652  -13.6157   23.4861 C   0  0  2  0  0  0  0  0  0  0  0  0
    7.1500  -13.6443   22.1966 N   0  0  0  0  0  0  0  0  0  0  0  0
    8.3541  -14.9486   23.8547 C   0  0  0  0  0  0  0  0  0  0  0  0
    7.7461  -16.0178   23.5929 O   0  0  0  0  0  0  0  0  0  0  0  0
    9.6079  -15.0608   24.5071 N   0  0  0  0  0  0  0  0  0  0  0  0
   10.1554  -16.4072   24.8214 C   0  0  1  0  0  0  0  0  0  0  0  0
   11.6160  -16.4113   24.4907 C   0  0  0  0  0  0  0  0  0  0  0  0
   12.0335  -17.2914   23.4012 C   0  0  0  0  0  0  0  0  0  0  0  0
   11.2292  -18.0179   22.7956 O   0  0  0  0  0  0  0  0  0  0  0  0
    9.9101  -16.6474   26.2578 C   0  0  0  0  0  0  0  0  0  0  0  0
    9.4778  -15.7612   27.0121 O   0  0  0  0  0  0  0  0  0  0  0  0
   13.3680  -17.3166   23.0318 O   0  0  0  0  0  0  0  0  0  0  0  0
   10.1764  -17.9168   26.7758 O   0  0  0  0  0  0  0  0  0  0  0  0
  2  4  1  0
  2  1  1  6
  2  3  1  0
  4  5  2  0
  6  7  1  0
  7  8  2  0
  7  9  1  0
  9 10  1  0
 11 10  1  1
 11 13  1  0
 12 11  1  0
 12  4  1  0
 13 14  2  0
 13 15  1  0
 15 16  1  0
 16 17  1  1
 17 18  1  0
 18 19  2  0
 18 22  1  0
 20 23  1  0
 20 16  1  0
 21 20  2  0
M  END
$$$$
