AQD.pdb
     RDKit          3D

 23 22  0  0  1  0  0  0  0  0999 V2000
    7.7378  -12.5377   19.4280 C   0  0  0  0  0  0  0  0  0  0  0  0
    7.7822  -13.9583   19.9193 C   0  0  2  0  0  0  0  0  0  0  0  0
    6.4455  -14.5221   20.0439 N   0  0  0  0  0  0  0  0  0  0  0  0
    8.4234  -14.0685   21.2662 C   0  0  0  0  0  0  0  0  0  0  0  0
    9.6499  -13.8460   21.4539 O   0  0  0  0  0  0  0  0  0  0  0  0
    5.5062  -13.6335   26.7320 N   0  0  0  0  0  0  0  0  0  0  0  0
    6.3278  -12.5447   26.3650 C   0  0  0  0  0  0  0  0  0  0  0  0
    6.1948  -11.4549   26.9559 O   0  0  0  0  0  0  0  0  0  0  0  0
    7.3240  -12.7269   25.2899 C   0  0  0  0  0  0  0  0  0  0  0  0
    7.2763  -14.1379   24.8270 C   0  0  0  0  0  0  0  0  0  0  0  0
    8.2485  -14.4650   23.7257 C   0  0  2  0  0  0  0  0  0  0  0  0
    7.6593  -14.4383   22.4240 N   0  0  0  0  0  0  0  0  0  0  0  0
    8.9303  -15.7752   24.0044 C   0  0  0  0  0  0  0  0  0  0  0  0
    8.3534  -16.8669   23.7659 O   0  0  0  0  0  0  0  0  0  0  0  0
   10.2403  -15.8402   24.5428 N   0  0  0  0  0  0  0  0  0  0  0  0
   10.8184  -17.1593   24.9132 C   0  0  1  0  0  0  0  0  0  0  0  0
   12.2420  -17.1971   24.4498 C   0  0  0  0  0  0  0  0  0  0  0  0
   12.4536  -17.3212   23.0090 C   0  0  0  0  0  0  0  0  0  0  0  0
   11.7330  -18.0383   22.2962 O   0  0  0  0  0  0  0  0  0  0  0  0
   10.7084  -17.2809   26.3809 C   0  0  0  0  0  0  0  0  0  0  0  0
   10.5457  -16.2938   27.1160 O   0  0  0  0  0  0  0  0  0  0  0  0
   13.4902  -16.6174   22.4192 O   0  0  0  0  0  0  0  0  0  0  0  0
   10.7914  -18.5529   26.9519 O   0  0  0  0  0  0  0  0  0  0  0  0
  2  4  1  0
  2  1  1  1
  2  3  1  0
  4  5  2  0
  6  7  1  0
  7  8  2  0
  7  9  1  0
  9 10  1  0
 11 10  1  1
 11 13  1  0
 12 11  1  0
 12  4  1  0
 13 14  2  0
 13 15  1  0
 15 16  1  0
 16 17  1  1
 17 18  1  0
 18 19  2  0
 18 22  1  0
 20 23  1  0
 20 16  1  0
 21 20  2  0
M  END
$$$$
