WRM.pdb
     RDKit          3D

 34 35  0  0  1  0  0  0  0  0999 V2000
    5.9683  -17.6180   25.4260 N   0  0  0  0  0  0  0  0  0  0  0  0
    6.8205  -16.5934   24.8568 C   0  0  1  0  0  0  0  0  0  0  0  0
    7.8395  -16.0977   25.8596 C   0  0  0  0  0  0  0  0  0  0  0  0
    7.2776  -15.0655   26.7569 C   0  0  0  0  0  0  0  0  0  0  0  0
    6.7603  -15.2561   28.0018 C   0  0  0  0  0  0  0  0  0  0  0  0
    6.3603  -14.0650   28.4706 N   0  0  0  0  0  0  0  0  0  0  0  0
    6.6131  -13.1212   27.5480 C   0  0  0  0  0  0  0  0  0  0  0  0
    6.3866  -11.7464   27.5510 C   0  0  0  0  0  0  0  0  0  0  0  0
    6.7545  -11.0178   26.4427 C   0  0  0  0  0  0  0  0  0  0  0  0
    7.3360  -11.6066   25.3398 C   0  0  0  0  0  0  0  0  0  0  0  0
    7.5529  -12.9612   25.3510 C   0  0  0  0  0  0  0  0  0  0  0  0
    7.1952  -13.7197   26.4468 C   0  0  0  0  0  0  0  0  0  0  0  0
    7.5558  -17.0849   23.6700 C   0  0  0  0  0  0  0  0  0  0  0  0
    8.1750  -18.1675   23.7596 O   0  0  0  0  0  0  0  0  0  0  0  0
    9.2746  -15.4783   15.9601 N   0  0  0  0  0  0  0  0  0  0  0  0
    8.6074  -14.2533   16.3105 C   0  0  0  0  0  0  0  0  0  0  0  0
    8.1289  -13.4839   15.3952 N   0  0  0  0  0  0  0  0  0  0  0  0
    8.4521  -13.8514   17.6608 N   0  0  0  0  0  0  0  0  0  0  0  0
    9.3794  -14.1943   18.6929 C   0  0  0  0  0  0  0  0  0  0  0  0
    9.2406  -15.6338   19.1726 C   0  0  0  0  0  0  0  0  0  0  0  0
    8.2144  -15.6039   20.2860 C   0  0  0  0  0  0  0  0  0  0  0  0
    8.6541  -16.4058   21.4872 C   0  0  2  0  0  0  0  0  0  0  0  0
    7.5680  -16.3638   22.4604 N   0  0  0  0  0  0  0  0  0  0  0  0
    9.9113  -15.8706   22.1005 C   0  0  0  0  0  0  0  0  0  0  0  0
   10.0367  -14.6426   22.1937 O   0  0  0  0  0  0  0  0  0  0  0  0
    7.7421  -12.5546   15.6077 C   0  0  0  0  0  0  0  0  0  0  0  0
   10.2541  -13.5197   26.8291 S   0  0  0  0  0  0  0  0  0  0  0  0
   11.3668  -14.8471   27.3682 C   0  0  0  0  0  0  0  0  0  0  0  0
   12.2367  -15.4556   25.8932 C   0  0  0  0  0  0  0  0  0  0  0  0
   11.2924  -15.8096   24.7945 C   0  0  1  0  0  0  0  0  0  0  0  0
   11.9407  -16.2952   23.5423 N   0  0  0  0  0  0  0  0  0  0  0  0
   10.9473  -16.6998   22.5716 C   0  0  0  0  0  0  0  0  0  0  0  0
   12.9421  -17.3628   23.7817 O   0  0  0  0  0  0  0  0  0  0  0  0
   12.8265  -18.6368   23.1896 O   0  0  0  0  0  0  0  0  0  0  0  0
  2  1  1  1
  2  3  1  0
  3  4  1  0
  4  5  2  0
  5  6  1  0
  7  6  1  0
  8  7  2  0
  9  8  1  0
 10 11  1  0
 10  9  2  0
 11 12  2  0
 12  4  1  0
 12  7  1  0
 13  2  1  0
 13 23  1  0
 14 13  2  0
 16 15  1  0
 17 16  2  0
 18 16  1  0
 19 18  1  0
 20 19  1  0
 20 21  1  0
 22 21  1  6
 22 24  1  0
 22 23  1  0
 24 31  1  0
 25 24  2  0
 27 28  1  0
 27 26  1  0
 29 28  1  0
 30 29  1  6
 31 30  1  0
 32 33  1  0
 32 30  1  0
 34 32  2  0
M  END
$$$$
