WRM.pdb
     RDKit          3D

 34 35  0  0  1  0  0  0  0  0999 V2000
    6.7403  -17.5570   26.3485 N   0  0  0  0  0  0  0  0  0  0  0  0
    7.0074  -16.3775   25.5500 C   0  0  1  0  0  0  0  0  0  0  0  0
    7.9903  -15.4532   26.2352 C   0  0  0  0  0  0  0  0  0  0  0  0
    7.3225  -14.5442   27.1911 C   0  0  0  0  0  0  0  0  0  0  0  0
    7.1468  -14.7452   28.5262 C   0  0  0  0  0  0  0  0  0  0  0  0
    6.4954  -13.6832   29.0225 N   0  0  0  0  0  0  0  0  0  0  0  0
    6.2537  -12.8112   28.0290 C   0  0  0  0  0  0  0  0  0  0  0  0
    5.6143  -11.5731   28.0255 C   0  0  0  0  0  0  0  0  0  0  0  0
    5.5102  -10.8911   26.8344 C   0  0  0  0  0  0  0  0  0  0  0  0
    6.0171  -11.3956   25.6556 C   0  0  0  0  0  0  0  0  0  0  0  0
    6.6440  -12.6158   25.6742 C   0  0  0  0  0  0  0  0  0  0  0  0
    6.7646  -13.3245   26.8520 C   0  0  0  0  0  0  0  0  0  0  0  0
    7.5627  -16.7247   24.2226 C   0  0  0  0  0  0  0  0  0  0  0  0
    8.2807  -17.7438   24.1258 O   0  0  0  0  0  0  0  0  0  0  0  0
    9.7226  -14.8313   15.9727 N   0  0  0  0  0  0  0  0  0  0  0  0
    9.0758  -13.9153   16.8732 C   0  0  0  0  0  0  0  0  0  0  0  0
    9.7133  -12.8995   17.3429 N   0  0  0  0  0  0  0  0  0  0  0  0
    7.7276  -14.0929   17.2727 N   0  0  0  0  0  0  0  0  0  0  0  0
    7.3082  -14.0960   18.6390 C   0  0  0  0  0  0  0  0  0  0  0  0
    8.0501  -15.1159   19.4939 C   0  0  0  0  0  0  0  0  0  0  0  0
    7.4126  -15.0506   20.8662 C   0  0  0  0  0  0  0  0  0  0  0  0
    8.0471  -16.0188   21.8354 C   0  0  2  0  0  0  0  0  0  0  0  0
    7.2985  -15.9378   23.0850 N   0  0  0  0  0  0  0  0  0  0  0  0
    9.4918  -15.7118   22.0839 C   0  0  0  0  0  0  0  0  0  0  0  0
    9.7687  -14.6792   22.7080 O   0  0  0  0  0  0  0  0  0  0  0  0
    9.3190  -12.2972   18.0778 C   0  0  0  0  0  0  0  0  0  0  0  0
   10.4208  -16.3494   26.6898 S   0  0  0  0  0  0  0  0  0  0  0  0
   12.0153  -15.6273   26.2133 C   0  0  0  0  0  0  0  0  0  0  0  0
   11.9769  -15.3717   24.4145 C   0  0  0  0  0  0  0  0  0  0  0  0
   11.8505  -16.6580   23.6704 C   0  0  2  0  0  0  0  0  0  0  0  0
   11.8792  -16.5288   22.1849 N   0  0  0  0  0  0  0  0  0  0  0  0
   10.5388  -16.5425   21.6408 C   0  0  0  0  0  0  0  0  0  0  0  0
   12.7487  -17.5362   21.5300 O   0  0  0  0  0  0  0  0  0  0  0  0
   14.1451  -17.5502   21.7217 O   0  0  0  0  0  0  0  0  0  0  0  0
  2  1  1  1
  2  3  1  0
  3  4  1  0
  4  5  2  0
  5  6  1  0
  7  6  1  0
  8  7  2  0
  9  8  1  0
 10 11  1  0
 10  9  2  0
 11 12  2  0
 12  4  1  0
 12  7  1  0
 13  2  1  0
 13 23  1  0
 14 13  2  0
 16 15  1  0
 17 16  2  0
 18 16  1  0
 19 18  1  0
 20 19  1  0
 20 21  1  0
 22 21  1  6
 22 24  1  0
 22 23  1  0
 24 31  1  0
 25 24  2  0
 27 28  1  0
 27 26  1  0
 29 28  1  0
 30 29  1  1
 31 30  1  0
 32 33  1  0
 32 30  1  0
 34 32  2  0
M  END
$$$$
