WRM.pdb
     RDKit          3D

 34 35  0  0  1  0  0  0  0  0999 V2000
    6.7247  -17.6664   25.8500 N   0  0  0  0  0  0  0  0  0  0  0  0
    7.2390  -16.7674   24.8364 C   0  0  1  0  0  0  0  0  0  0  0  0
    7.8163  -15.5103   25.4497 C   0  0  0  0  0  0  0  0  0  0  0  0
    6.7625  -14.6108   25.9659 C   0  0  0  0  0  0  0  0  0  0  0  0
    5.7803  -14.9254   26.8547 C   0  0  0  0  0  0  0  0  0  0  0  0
    5.0359  -13.8280   27.0547 N   0  0  0  0  0  0  0  0  0  0  0  0
    5.5257  -12.8221   26.3103 C   0  0  0  0  0  0  0  0  0  0  0  0
    5.1140  -11.4989   26.1649 C   0  0  0  0  0  0  0  0  0  0  0  0
    5.8211  -10.6809   25.3132 C   0  0  0  0  0  0  0  0  0  0  0  0
    6.9160  -11.1316   24.6067 C   0  0  0  0  0  0  0  0  0  0  0  0
    7.3099  -12.4369   24.7598 C   0  0  0  0  0  0  0  0  0  0  0  0
    6.6220  -13.2824   25.6059 C   0  0  0  0  0  0  0  0  0  0  0  0
    8.3002  -17.4027   24.0235 C   0  0  0  0  0  0  0  0  0  0  0  0
    8.9477  -18.3482   24.5238 O   0  0  0  0  0  0  0  0  0  0  0  0
    8.2196  -11.8331   19.0323 N   0  0  0  0  0  0  0  0  0  0  0  0
    8.6564  -13.1474   18.6449 C   0  0  0  0  0  0  0  0  0  0  0  0
    9.8700  -13.3476   18.2630 N   0  0  0  0  0  0  0  0  0  0  0  0
    7.7784  -14.2598   18.6693 N   0  0  0  0  0  0  0  0  0  0  0  0
    8.1915  -15.5773   19.0382 C   0  0  0  0  0  0  0  0  0  0  0  0
    8.9616  -15.6208   20.3522 C   0  0  0  0  0  0  0  0  0  0  0  0
    9.4659  -17.0420   20.4919 C   0  0  0  0  0  0  0  0  0  0  0  0
    9.7331  -17.4124   21.9309 C   0  0  2  0  0  0  0  0  0  0  0  0
    8.5870  -16.9661   22.7157 N   0  0  0  0  0  0  0  0  0  0  0  0
   10.9880  -16.7866   22.4569 C   0  0  0  0  0  0  0  0  0  0  0  0
   11.1242  -15.5624   22.3334 O   0  0  0  0  0  0  0  0  0  0  0  0
   10.2111  -14.2780   17.9867 C   0  0  0  0  0  0  0  0  0  0  0  0
   11.8210  -15.1160   29.1019 S   0  0  0  0  0  0  0  0  0  0  0  0
   11.3583  -15.2550   27.3533 C   0  0  0  0  0  0  0  0  0  0  0  0
   11.8209  -16.9239   26.8028 C   0  0  0  0  0  0  0  0  0  0  0  0
   11.3988  -17.1849   25.3965 C   0  0  1  0  0  0  0  0  0  0  0  0
   12.5151  -17.2638   24.4108 N   0  0  0  0  0  0  0  0  0  0  0  0
   12.0102  -17.5271   23.0809 C   0  0  0  0  0  0  0  0  0  0  0  0
   13.5683  -18.2325   24.8007 O   0  0  0  0  0  0  0  0  0  0  0  0
   14.5483  -17.9177   25.7639 O   0  0  0  0  0  0  0  0  0  0  0  0
  2  1  1  1
  2  3  1  0
  3  4  1  0
  4  5  2  0
  5  6  1  0
  7  6  1  0
  8  7  2  0
  9  8  1  0
 10 11  1  0
 10  9  2  0
 11 12  2  0
 12  4  1  0
 12  7  1  0
 13  2  1  0
 13 23  1  0
 14 13  2  0
 16 15  1  0
 17 16  2  0
 18 16  1  0
 19 18  1  0
 20 19  1  0
 20 21  1  0
 22 21  1  6
 22 24  1  0
 22 23  1  0
 24 31  1  0
 25 24  2  0
 27 28  1  0
 27 26  1  0
 29 28  1  0
 30 29  1  6
 31 30  1  0
 32 33  1  0
 32 30  1  0
 34 32  2  0
M  END
$$$$
