WRM.pdb
     RDKit          3D

 34 35  0  0  1  0  0  0  0  0999 V2000
    6.0460  -17.5613   24.9228 N   0  0  0  0  0  0  0  0  0  0  0  0
    7.0671  -16.7429   24.3003 C   0  0  1  0  0  0  0  0  0  0  0  0
    7.7329  -15.8263   25.3035 C   0  0  0  0  0  0  0  0  0  0  0  0
    6.8030  -14.7979   25.8172 C   0  0  0  0  0  0  0  0  0  0  0  0
    5.5921  -15.0081   26.4031 C   0  0  0  0  0  0  0  0  0  0  0  0
    5.0735  -13.8132   26.7219 N   0  0  0  0  0  0  0  0  0  0  0  0
    5.9311  -12.8476   26.3501 C   0  0  0  0  0  0  0  0  0  0  0  0
    5.8587  -11.4603   26.4573 C   0  0  0  0  0  0  0  0  0  0  0  0
    6.9077  -10.7090   25.9781 C   0  0  0  0  0  0  0  0  0  0  0  0
    8.0181  -11.2872   25.4003 C   0  0  0  0  0  0  0  0  0  0  0  0
    8.0755  -12.6544   25.3014 C   0  0  0  0  0  0  0  0  0  0  0  0
    7.0401  -13.4357   25.7722 C   0  0  0  0  0  0  0  0  0  0  0  0
    8.1232  -17.5653   23.6685 C   0  0  0  0  0  0  0  0  0  0  0  0
    8.5436  -18.5694   24.2836 O   0  0  0  0  0  0  0  0  0  0  0  0
    7.8810  -12.2756   18.2720 N   0  0  0  0  0  0  0  0  0  0  0  0
    8.1463  -13.6847   18.3831 C   0  0  0  0  0  0  0  0  0  0  0  0
    7.1799  -14.5228   18.5320 N   0  0  0  0  0  0  0  0  0  0  0  0
    9.4662  -14.1988   18.3325 N   0  0  0  0  0  0  0  0  0  0  0  0
    9.8102  -15.5199   18.7555 C   0  0  0  0  0  0  0  0  0  0  0  0
    9.5864  -15.7524   20.2446 C   0  0  0  0  0  0  0  0  0  0  0  0
   10.1466  -17.1282   20.5395 C   0  0  0  0  0  0  0  0  0  0  0  0
   10.0328  -17.4880   22.0013 C   0  0  2  0  0  0  0  0  0  0  0  0
    8.6529  -17.2397   22.4049 N   0  0  0  0  0  0  0  0  0  0  0  0
   10.9676  -16.6915   22.8587 C   0  0  0  0  0  0  0  0  0  0  0  0
   11.2351  -15.5344   22.5092 O   0  0  0  0  0  0  0  0  0  0  0  0
    7.3432  -15.5308   18.6572 C   0  0  0  0  0  0  0  0  0  0  0  0
   10.6645  -13.6535   28.4406 S   0  0  0  0  0  0  0  0  0  0  0  0
   10.1326  -15.3426   28.0471 C   0  0  0  0  0  0  0  0  0  0  0  0
   10.6203  -15.6764   26.3287 C   0  0  0  0  0  0  0  0  0  0  0  0
   11.9700  -16.3051   26.2435 C   0  0  2  0  0  0  0  0  0  0  0  0
   12.4951  -16.4781   24.8584 N   0  0  0  0  0  0  0  0  0  0  0  0
   11.5493  -17.2004   24.0356 C   0  0  0  0  0  0  0  0  0  0  0  0
   13.8422  -17.0973   24.8199 O   0  0  0  0  0  0  0  0  0  0  0  0
   14.9877  -16.4144   25.2766 O   0  0  0  0  0  0  0  0  0  0  0  0
  2  1  1  1
  2  3  1  0
  3  4  1  0
  4  5  2  0
  5  6  1  0
  7  6  1  0
  8  7  2  0
  9  8  1  0
 10 11  1  0
 10  9  2  0
 11 12  2  0
 12  4  1  0
 12  7  1  0
 13  2  1  0
 13 23  1  0
 14 13  2  0
 16 15  1  0
 17 16  2  0
 18 16  1  0
 19 18  1  0
 20 19  1  0
 20 21  1  0
 22 21  1  6
 22 24  1  0
 22 23  1  0
 24 31  1  0
 25 24  2  0
 27 28  1  0
 27 26  1  0
 29 28  1  0
 30 29  1  6
 31 30  1  0
 32 33  1  0
 32 30  1  0
 34 32  2  0
M  END
$$$$
