WRM.pdb
     RDKit          3D

 34 35  0  0  1  0  0  0  0  0999 V2000
    6.8238  -17.5754   25.6871 N   0  0  0  0  0  0  0  0  0  0  0  0
    6.8802  -16.5364   24.6785 C   0  0  1  0  0  0  0  0  0  0  0  0
    7.6171  -15.3137   25.1805 C   0  0  0  0  0  0  0  0  0  0  0  0
    6.7271  -14.3966   25.9242 C   0  0  0  0  0  0  0  0  0  0  0  0
    5.5599  -14.7153   26.5485 C   0  0  0  0  0  0  0  0  0  0  0  0
    5.0669  -13.5968   27.1003 N   0  0  0  0  0  0  0  0  0  0  0  0
    5.8979  -12.5736   26.8389 C   0  0  0  0  0  0  0  0  0  0  0  0
    5.8355  -11.2251   27.1843 C   0  0  0  0  0  0  0  0  0  0  0  0
    6.8497  -10.3929   26.7677 C   0  0  0  0  0  0  0  0  0  0  0  0
    7.9158  -10.8537   26.0247 C   0  0  0  0  0  0  0  0  0  0  0  0
    7.9639  -12.1838   25.6920 C   0  0  0  0  0  0  0  0  0  0  0  0
    6.9628  -13.0440   26.0942 C   0  0  0  0  0  0  0  0  0  0  0  0
    7.5588  -16.9997   23.4474 C   0  0  0  0  0  0  0  0  0  0  0  0
    8.3020  -18.0027   23.5188 O   0  0  0  0  0  0  0  0  0  0  0  0
   10.3315  -14.5626   16.6333 N   0  0  0  0  0  0  0  0  0  0  0  0
    8.9711  -14.4852   16.1730 C   0  0  0  0  0  0  0  0  0  0  0  0
    8.6611  -14.8619   14.9812 N   0  0  0  0  0  0  0  0  0  0  0  0
    7.9317  -13.9980   17.0045 N   0  0  0  0  0  0  0  0  0  0  0  0
    8.1339  -13.6031   18.3630 C   0  0  0  0  0  0  0  0  0  0  0  0
    8.8297  -14.6677   19.2021 C   0  0  0  0  0  0  0  0  0  0  0  0
    7.9686  -14.8548   20.4338 C   0  0  0  0  0  0  0  0  0  0  0  0
    8.4696  -15.9745   21.3140 C   0  0  2  0  0  0  0  0  0  0  0  0
    7.3826  -16.3392   22.2162 N   0  0  0  0  0  0  0  0  0  0  0  0
    9.6796  -15.5806   22.1039 C   0  0  0  0  0  0  0  0  0  0  0  0
    9.8907  -14.3740   22.2827 O   0  0  0  0  0  0  0  0  0  0  0  0
    7.6905  -14.8572   14.6401 C   0  0  0  0  0  0  0  0  0  0  0  0
   10.2798  -13.8001   27.3978 S   0  0  0  0  0  0  0  0  0  0  0  0
   10.6269  -15.3535   26.5274 C   0  0  0  0  0  0  0  0  0  0  0  0
   11.6303  -14.9431   25.0689 C   0  0  0  0  0  0  0  0  0  0  0  0
   12.1902  -16.1614   24.4158 C   0  0  2  0  0  0  0  0  0  0  0  0
   11.9676  -16.2423   22.9434 N   0  0  0  0  0  0  0  0  0  0  0  0
   10.5787  -16.5183   22.6469 C   0  0  0  0  0  0  0  0  0  0  0  0
   12.8748  -17.2028   22.2696 O   0  0  0  0  0  0  0  0  0  0  0  0
   14.2751  -17.0419   22.2890 O   0  0  0  0  0  0  0  0  0  0  0  0
  2  1  1  1
  2  3  1  0
  3  4  1  0
  4  5  2  0
  5  6  1  0
  7  6  1  0
  8  7  2  0
  9  8  1  0
 10 11  1  0
 10  9  2  0
 11 12  2  0
 12  4  1  0
 12  7  1  0
 13  2  1  0
 13 23  1  0
 14 13  2  0
 16 15  1  0
 17 16  2  0
 18 16  1  0
 19 18  1  0
 20 19  1  0
 20 21  1  0
 22 21  1  1
 22 24  1  0
 22 23  1  0
 24 31  1  0
 25 24  2  0
 27 28  1  0
 27 26  1  0
 29 28  1  0
 30 29  1  6
 31 30  1  0
 32 33  1  0
 32 30  1  0
 34 32  2  0
M  END
$$$$
