WRM.pdb
     RDKit          3D

 34 35  0  0  1  0  0  0  0  0999 V2000
    6.1415  -18.1998   25.0955 N   0  0  0  0  0  0  0  0  0  0  0  0
    6.8473  -17.0531   24.5598 C   0  0  1  0  0  0  0  0  0  0  0  0
    7.4594  -16.2135   25.6599 C   0  0  0  0  0  0  0  0  0  0  0  0
    6.6086  -15.0569   26.0131 C   0  0  0  0  0  0  0  0  0  0  0  0
    5.3962  -15.0907   26.6316 C   0  0  0  0  0  0  0  0  0  0  0  0
    4.9637  -13.8282   26.7640 N   0  0  0  0  0  0  0  0  0  0  0  0
    5.8775  -12.9927   26.2416 C   0  0  0  0  0  0  0  0  0  0  0  0
    5.8996  -11.6038   26.1324 C   0  0  0  0  0  0  0  0  0  0  0  0
    6.9883  -11.0091   25.5362 C   0  0  0  0  0  0  0  0  0  0  0  0
    8.0480  -11.7443   25.0486 C   0  0  0  0  0  0  0  0  0  0  0  0
    8.0126  -13.1110   25.1630 C   0  0  0  0  0  0  0  0  0  0  0  0
    6.9353  -13.7375   25.7555 C   0  0  0  0  0  0  0  0  0  0  0  0
    7.9345  -17.4556   23.6397 C   0  0  0  0  0  0  0  0  0  0  0  0
    8.7719  -18.2942   24.0385 O   0  0  0  0  0  0  0  0  0  0  0  0
    7.3580  -12.4502   17.5503 N   0  0  0  0  0  0  0  0  0  0  0  0
    8.1910  -13.5875   17.2658 C   0  0  0  0  0  0  0  0  0  0  0  0
    8.3975  -13.9597   16.0503 N   0  0  0  0  0  0  0  0  0  0  0  0
    8.8100  -14.3329   18.3003 N   0  0  0  0  0  0  0  0  0  0  0  0
    9.6544  -15.4602   18.0576 C   0  0  0  0  0  0  0  0  0  0  0  0
   10.1450  -16.1307   19.3347 C   0  0  0  0  0  0  0  0  0  0  0  0
    8.9702  -16.1149   20.2904 C   0  0  0  0  0  0  0  0  0  0  0  0
    9.2846  -16.8151   21.5905 C   0  0  2  0  0  0  0  0  0  0  0  0
    8.0385  -16.9177   22.3424 N   0  0  0  0  0  0  0  0  0  0  0  0
   10.3108  -16.0824   22.3988 C   0  0  0  0  0  0  0  0  0  0  0  0
    9.9944  -14.9911   22.8900 O   0  0  0  0  0  0  0  0  0  0  0  0
    8.8225  -14.8678   15.8200 C   0  0  0  0  0  0  0  0  0  0  0  0
   10.4583  -14.6116   28.5973 S   0  0  0  0  0  0  0  0  0  0  0  0
   10.6644  -16.0798   27.5519 C   0  0  0  0  0  0  0  0  0  0  0  0
   11.4634  -15.5389   26.0119 C   0  0  0  0  0  0  0  0  0  0  0  0
   11.6162  -16.6589   25.0390 C   0  0  2  0  0  0  0  0  0  0  0  0
   12.3911  -16.3212   23.8104 N   0  0  0  0  0  0  0  0  0  0  0  0
   11.6091  -16.5799   22.6210 C   0  0  0  0  0  0  0  0  0  0  0  0
   13.7139  -16.9896   23.7546 O   0  0  0  0  0  0  0  0  0  0  0  0
   14.9085  -16.2994   24.0437 O   0  0  0  0  0  0  0  0  0  0  0  0
  2  1  1  1
  2  3  1  0
  3  4  1  0
  4  5  2  0
  5  6  1  0
  7  6  1  0
  8  7  2  0
  9  8  1  0
 10 11  1  0
 10  9  2  0
 11 12  2  0
 12  4  1  0
 12  7  1  0
 13  2  1  0
 13 23  1  0
 14 13  2  0
 16 15  1  0
 17 16  2  0
 18 16  1  0
 19 18  1  0
 20 19  1  0
 20 21  1  0
 22 21  1  6
 22 24  1  0
 22 23  1  0
 24 31  1  0
 25 24  2  0
 27 28  1  0
 27 26  1  0
 29 28  1  0
 30 29  1  1
 31 30  1  0
 32 33  1  0
 32 30  1  0
 34 32  2  0
M  END
$$$$
