WRM.pdb
     RDKit          3D

 34 35  0  0  1  0  0  0  0  0999 V2000
    6.8012  -18.3718   25.4017 N   0  0  0  0  0  0  0  0  0  0  0  0
    6.9897  -17.0777   24.7773 C   0  0  1  0  0  0  0  0  0  0  0  0
    7.4472  -16.0389   25.7780 C   0  0  0  0  0  0  0  0  0  0  0  0
    6.4379  -14.9766   25.9749 C   0  0  0  0  0  0  0  0  0  0  0  0
    5.1257  -15.1433   26.2972 C   0  0  0  0  0  0  0  0  0  0  0  0
    4.5622  -13.9291   26.3796 N   0  0  0  0  0  0  0  0  0  0  0  0
    5.4907  -12.9940   26.1160 C   0  0  0  0  0  0  0  0  0  0  0  0
    5.4111  -11.6036   26.0730 C   0  0  0  0  0  0  0  0  0  0  0  0
    6.5476  -10.8898   25.7675 C   0  0  0  0  0  0  0  0  0  0  0  0
    7.7518  -11.5083   25.5054 C   0  0  0  0  0  0  0  0  0  0  0  0
    7.8152  -12.8780   25.5514 C   0  0  0  0  0  0  0  0  0  0  0  0
    6.6935  -13.6222   25.8545 C   0  0  0  0  0  0  0  0  0  0  0  0
    7.9928  -17.1313   23.6902 C   0  0  0  0  0  0  0  0  0  0  0  0
    8.7440  -18.1285   23.6220 O   0  0  0  0  0  0  0  0  0  0  0  0
    8.4501  -13.1893   14.9783 N   0  0  0  0  0  0  0  0  0  0  0  0
    8.8354  -13.9331   16.1474 C   0  0  0  0  0  0  0  0  0  0  0  0
    9.8418  -14.7358   16.1100 N   0  0  0  0  0  0  0  0  0  0  0  0
    8.1309  -13.8117   17.3713 N   0  0  0  0  0  0  0  0  0  0  0  0
    8.7732  -13.7969   18.6479 C   0  0  0  0  0  0  0  0  0  0  0  0
    9.0226  -15.1900   19.2123 C   0  0  0  0  0  0  0  0  0  0  0  0
    8.2401  -15.2604   20.5070 C   0  0  0  0  0  0  0  0  0  0  0  0
    8.8823  -16.1875   21.5107 C   0  0  2  0  0  0  0  0  0  0  0  0
    8.1119  -16.0932   22.7461 N   0  0  0  0  0  0  0  0  0  0  0  0
   10.3149  -15.8387   21.7735 C   0  0  0  0  0  0  0  0  0  0  0  0
   11.1721  -16.2702   20.9914 O   0  0  0  0  0  0  0  0  0  0  0  0
   10.0966  -15.3326   16.9083 C   0  0  0  0  0  0  0  0  0  0  0  0
   11.1160  -14.8383   28.6385 S   0  0  0  0  0  0  0  0  0  0  0  0
   11.1827  -16.4493   27.8071 C   0  0  0  0  0  0  0  0  0  0  0  0
   12.0214  -16.2012   26.2142 C   0  0  0  0  0  0  0  0  0  0  0  0
   11.0910  -15.6889   25.1672 C   0  0  1  0  0  0  0  0  0  0  0  0
   11.7177  -15.4449   23.8361 N   0  0  0  0  0  0  0  0  0  0  0  0
   10.7231  -15.0469   22.8639 C   0  0  0  0  0  0  0  0  0  0  0  0
   12.5284  -16.5903   23.3559 O   0  0  0  0  0  0  0  0  0  0  0  0
   11.9577  -17.8572   23.1182 O   0  0  0  0  0  0  0  0  0  0  0  0
  2  1  1  1
  2  3  1  0
  3  4  1  0
  4  5  2  0
  5  6  1  0
  7  6  1  0
  8  7  2  0
  9  8  1  0
 10 11  1  0
 10  9  2  0
 11 12  2  0
 12  4  1  0
 12  7  1  0
 13  2  1  0
 13 23  1  0
 14 13  2  0
 16 15  1  0
 17 16  2  0
 18 16  1  0
 19 18  1  0
 20 19  1  0
 20 21  1  0
 22 21  1  6
 22 24  1  0
 22 23  1  0
 24 31  1  0
 25 24  2  0
 27 28  1  0
 27 26  1  0
 29 28  1  0
 30 29  1  1
 31 30  1  0
 32 33  1  0
 32 30  1  0
 34 32  2  0
M  END
$$$$
