YIN.pdb
     RDKit          3D

 29 29  0  0  1  0  0  0  0  0999 V2000
   14.5955  -23.9218   -3.7338 O   0  0  0  0  0  0  0  0  0  0  0  0
   15.1636  -24.7410   -4.7074 C   0  0  0  0  0  0  0  0  0  0  0  0
   14.3298  -25.6106   -5.3820 C   0  0  0  0  0  0  0  0  0  0  0  0
   14.8765  -26.4363   -6.3564 C   0  0  0  0  0  0  0  0  0  0  0  0
   16.2133  -26.3881   -6.6413 C   0  0  0  0  0  0  0  0  0  0  0  0
   16.7682  -27.2831   -7.6889 C   0  0  0  0  0  0  0  0  0  0  0  0
   17.1625  -26.4969   -8.9063 C   0  0  2  0  0  0  0  0  0  0  0  0
   16.0668  -25.8082   -9.5254 N   0  0  0  0  0  0  0  0  0  0  0  0
   17.8739  -27.4126   -9.8364 C   0  0  0  0  0  0  0  0  0  0  0  0
   17.2064  -28.1860  -10.5487 O   0  0  0  0  0  0  0  0  0  0  0  0
   17.0303  -25.5149   -5.9593 C   0  0  0  0  0  0  0  0  0  0  0  0
   16.5074  -24.6813   -4.9824 C   0  0  0  0  0  0  0  0  0  0  0  0
   20.7616  -25.7362  -13.4727 C   0  0  0  0  0  0  0  0  0  0  0  0
   19.9671  -26.6315  -12.5886 C   0  0  0  0  0  0  0  0  0  0  0  0
   20.8478  -27.5774  -11.7453 C   0  0  2  0  0  0  0  0  0  0  0  0
   21.6634  -28.4422  -12.6794 C   0  0  0  0  0  0  0  0  0  0  0  0
   19.9950  -28.3894  -10.8349 C   0  0  2  0  0  0  0  0  0  0  0  0
   19.2744  -27.4361   -9.9397 N   0  0  0  0  0  0  0  0  0  0  0  0
   20.6496  -29.4105  -10.0269 C   0  0  0  0  0  0  0  0  0  0  0  0
   21.4048  -29.0104   -9.0547 O   0  0  0  0  0  0  0  0  0  0  0  0
   19.7424  -33.4004   -6.6170 N   0  0  0  0  0  0  0  0  0  0  0  0
   20.9150  -32.6198   -6.9431 C   0  0  0  0  0  0  0  0  0  0  0  0
   21.9931  -33.0260   -6.4628 O   0  0  0  0  0  0  0  0  0  0  0  0
   20.7648  -31.4370   -7.7911 C   0  0  0  0  0  0  0  0  0  0  0  0
   21.2498  -31.7148   -9.1871 C   0  0  2  0  0  0  0  0  0  0  0  0
   20.5872  -30.8023  -10.1337 N   0  0  0  0  0  0  0  0  0  0  0  0
   20.8289  -33.0582   -9.5961 C   0  0  0  0  0  0  0  0  0  0  0  0
   21.4034  -34.0802   -9.1891 O   0  0  0  0  0  0  0  0  0  0  0  0
   19.7689  -33.2339  -10.4559 O   0  0  0  0  0  0  0  0  0  0  0  0
  2  1  1  0
  3  2  2  0
  4  3  1  0
  5  4  2  0
  5 11  1  0
  6  5  1  0
  7  6  1  0
  7  9  1  0
  7  8  1  6
  9 10  2  0
 11 12  2  0
 12  2  1  0
 13 14  1  0
 15 14  1  0
 15 17  1  0
 15 16  1  6
 17 18  1  1
 18  9  1  0
 19 17  1  0
 19 20  2  0
 21 22  1  0
 22 24  1  0
 23 22  2  0
 25 24  1  1
 25 26  1  0
 25 27  1  0
 26 19  1  0
 27 29  1  0
 28 27  2  0
M  END
$$$$
