YIN.pdb
     RDKit          3D

 29 29  0  0  1  0  0  0  0  0999 V2000
   28.6676  -14.3714  -17.6359 O   0  0  0  0  0  0  0  0  0  0  0  0
   27.9825  -15.4022  -16.9956 C   0  0  0  0  0  0  0  0  0  0  0  0
   27.6245  -16.5017  -17.7502 C   0  0  0  0  0  0  0  0  0  0  0  0
   26.9406  -17.5403  -17.1307 C   0  0  0  0  0  0  0  0  0  0  0  0
   26.6289  -17.4745  -15.8007 C   0  0  0  0  0  0  0  0  0  0  0  0
   25.8975  -18.6012  -15.1666 C   0  0  0  0  0  0  0  0  0  0  0  0
   26.8302  -19.4487  -14.3498 C   0  0  2  0  0  0  0  0  0  0  0  0
   27.8720  -20.0637  -15.1209 N   0  0  0  0  0  0  0  0  0  0  0  0
   26.0141  -20.4298  -13.5876 C   0  0  0  0  0  0  0  0  0  0  0  0
   25.9433  -21.6033  -13.9988 O   0  0  0  0  0  0  0  0  0  0  0  0
   26.9937  -16.3708  -15.0631 C   0  0  0  0  0  0  0  0  0  0  0  0
   27.6767  -15.3218  -15.6596 C   0  0  0  0  0  0  0  0  0  0  0  0
   26.5220  -20.4132   -8.3785 C   0  0  0  0  0  0  0  0  0  0  0  0
   26.2426  -20.8769   -9.7646 C   0  0  0  0  0  0  0  0  0  0  0  0
   24.7638  -20.7017  -10.1693 C   0  0  2  0  0  0  0  0  0  0  0  0
   23.9059  -21.5355   -9.2449 C   0  0  0  0  0  0  0  0  0  0  0  0
   24.5787  -21.0815  -11.5965 C   0  0  2  0  0  0  0  0  0  0  0  0
   25.3192  -20.0790  -12.4186 N   0  0  0  0  0  0  0  0  0  0  0  0
   23.2136  -21.2004  -12.0930 C   0  0  0  0  0  0  0  0  0  0  0  0
   22.4531  -22.0921  -11.5434 O   0  0  0  0  0  0  0  0  0  0  0  0
   21.6427  -20.9175  -16.1357 N   0  0  0  0  0  0  0  0  0  0  0  0
   21.3190  -22.1479  -15.4488 C   0  0  0  0  0  0  0  0  0  0  0  0
   21.3312  -23.1831  -16.1461 O   0  0  0  0  0  0  0  0  0  0  0  0
   21.0064  -22.1001  -14.0202 C   0  0  0  0  0  0  0  0  0  0  0  0
   21.1659  -20.7042  -13.4843 C   0  0  2  0  0  0  0  0  0  0  0  0
   22.5689  -20.4772  -13.0999 N   0  0  0  0  0  0  0  0  0  0  0  0
   20.4035  -20.5648  -12.2399 C   0  0  0  0  0  0  0  0  0  0  0  0
   20.9540  -20.3207  -11.1547 O   0  0  0  0  0  0  0  0  0  0  0  0
   19.0342  -20.7014  -12.2327 O   0  0  0  0  0  0  0  0  0  0  0  0
  2  1  1  0
  3  2  2  0
  4  3  1  0
  5  4  2  0
  5 11  1  0
  6  5  1  0
  7  6  1  0
  7  9  1  0
  7  8  1  6
  9 10  2  0
 11 12  2  0
 12  2  1  0
 13 14  1  0
 15 14  1  0
 15 17  1  0
 15 16  1  1
 17 18  1  6
 18  9  1  0
 19 17  1  0
 19 20  2  0
 21 22  1  0
 22 24  1  0
 23 22  2  0
 25 24  1  1
 25 26  1  0
 25 27  1  0
 26 19  1  0
 27 29  1  0
 28 27  2  0
M  END
$$$$
