YIN.pdb
     RDKit          3D

 29 29  0  0  1  0  0  0  0  0999 V2000
   24.6002  -14.0224  -20.7058 O   0  0  0  0  0  0  0  0  0  0  0  0
   24.4423  -15.2039  -19.9841 C   0  0  0  0  0  0  0  0  0  0  0  0
   24.0792  -15.1021  -18.6559 C   0  0  0  0  0  0  0  0  0  0  0  0
   23.9169  -16.2684  -17.9186 C   0  0  0  0  0  0  0  0  0  0  0  0
   24.1126  -17.4920  -18.4973 C   0  0  0  0  0  0  0  0  0  0  0  0
   23.9309  -18.7211  -17.6832 C   0  0  0  0  0  0  0  0  0  0  0  0
   25.1068  -18.9358  -16.7739 C   0  0  2  0  0  0  0  0  0  0  0  0
   26.3411  -19.1529  -17.4723 N   0  0  0  0  0  0  0  0  0  0  0  0
   24.7686  -20.0369  -15.8345 C   0  0  0  0  0  0  0  0  0  0  0  0
   24.7895  -21.2110  -16.2496 O   0  0  0  0  0  0  0  0  0  0  0  0
   24.4741  -17.5754  -19.8231 C   0  0  0  0  0  0  0  0  0  0  0  0
   24.6422  -16.4251  -20.5789 C   0  0  0  0  0  0  0  0  0  0  0  0
   25.5105  -21.9339  -10.1896 C   0  0  0  0  0  0  0  0  0  0  0  0
   24.5926  -21.9121  -11.3606 C   0  0  0  0  0  0  0  0  0  0  0  0
   24.9628  -20.8266  -12.3931 C   0  0  2  0  0  0  0  0  0  0  0  0
   24.9163  -19.4762  -11.7151 C   0  0  0  0  0  0  0  0  0  0  0  0
   24.0403  -20.8979  -13.5589 C   0  0  2  0  0  0  0  0  0  0  0  0
   24.4257  -19.7991  -14.4935 N   0  0  0  0  0  0  0  0  0  0  0  0
   22.6089  -20.8273  -13.2938 C   0  0  0  0  0  0  0  0  0  0  0  0
   22.0765  -19.6515  -13.1949 O   0  0  0  0  0  0  0  0  0  0  0  0
   17.2827  -22.5953  -14.3545 N   0  0  0  0  0  0  0  0  0  0  0  0
   18.1427  -21.4399  -14.2285 C   0  0  0  0  0  0  0  0  0  0  0  0
   17.5685  -20.3502  -14.0265 O   0  0  0  0  0  0  0  0  0  0  0  0
   19.5903  -21.6188  -14.3435 C   0  0  0  0  0  0  0  0  0  0  0  0
   20.2366  -21.6352  -12.9858 C   0  0  2  0  0  0  0  0  0  0  0  0
   21.6844  -21.8619  -13.1279 N   0  0  0  0  0  0  0  0  0  0  0  0
   19.7452  -22.7851  -12.2208 C   0  0  0  0  0  0  0  0  0  0  0  0
   18.7574  -22.7048  -11.4736 O   0  0  0  0  0  0  0  0  0  0  0  0
   20.3700  -24.0081  -12.3061 O   0  0  0  0  0  0  0  0  0  0  0  0
  2  1  1  0
  3  2  2  0
  4  3  1  0
  5  4  2  0
  5 11  1  0
  6  5  1  0
  7  6  1  0
  7  9  1  0
  7  8  1  6
  9 10  2  0
 11 12  2  0
 12  2  1  0
 13 14  1  0
 15 14  1  0
 15 17  1  0
 15 16  1  1
 17 18  1  6
 18  9  1  0
 19 17  1  0
 19 20  2  0
 21 22  1  0
 22 24  1  0
 23 22  2  0
 25 24  1  6
 25 26  1  0
 25 27  1  0
 26 19  1  0
 27 29  1  0
 28 27  2  0
M  END
$$$$
