YIN.pdb
     RDKit          3D

 29 29  0  0  1  0  0  0  0  0999 V2000
   28.8800  -14.6131  -18.5990 O   0  0  0  0  0  0  0  0  0  0  0  0
   28.1874  -15.5741  -17.8650 C   0  0  0  0  0  0  0  0  0  0  0  0
   27.6499  -16.6439  -18.5526 C   0  0  0  0  0  0  0  0  0  0  0  0
   26.9553  -17.6129  -17.8392 C   0  0  0  0  0  0  0  0  0  0  0  0
   26.8077  -17.5087  -16.4836 C   0  0  0  0  0  0  0  0  0  0  0  0
   26.0602  -18.5610  -15.7486 C   0  0  0  0  0  0  0  0  0  0  0  0
   27.0048  -19.5526  -15.1320 C   0  0  2  0  0  0  0  0  0  0  0  0
   27.7842  -20.2782  -16.0933 N   0  0  0  0  0  0  0  0  0  0  0  0
   26.2211  -20.4378  -14.2311 C   0  0  0  0  0  0  0  0  0  0  0  0
   25.7498  -21.4966  -14.6872 O   0  0  0  0  0  0  0  0  0  0  0  0
   27.3504  -16.4354  -15.8136 C   0  0  0  0  0  0  0  0  0  0  0  0
   28.0475  -15.4559  -16.5043 C   0  0  0  0  0  0  0  0  0  0  0  0
   25.2031  -21.5356   -8.2310 C   0  0  0  0  0  0  0  0  0  0  0  0
   24.7242  -21.5976   -9.6385 C   0  0  0  0  0  0  0  0  0  0  0  0
   25.6056  -20.7830  -10.6086 C   0  0  2  0  0  0  0  0  0  0  0  0
   25.5977  -19.3356  -10.1721 C   0  0  0  0  0  0  0  0  0  0  0  0
   25.1131  -20.9480  -12.0035 C   0  0  2  0  0  0  0  0  0  0  0  0
   25.9930  -20.1212  -12.8819 N   0  0  0  0  0  0  0  0  0  0  0  0
   23.7183  -20.6211  -12.2713 C   0  0  0  0  0  0  0  0  0  0  0  0
   23.4455  -19.4044  -12.6188 O   0  0  0  0  0  0  0  0  0  0  0  0
   18.7895  -20.3932  -13.5832 N   0  0  0  0  0  0  0  0  0  0  0  0
   19.5537  -21.3212  -14.3868 C   0  0  0  0  0  0  0  0  0  0  0  0
   18.9955  -21.7348  -15.4237 O   0  0  0  0  0  0  0  0  0  0  0  0
   20.8943  -21.7043  -13.9434 C   0  0  0  0  0  0  0  0  0  0  0  0
   21.2535  -21.0058  -12.6610 C   0  0  2  0  0  0  0  0  0  0  0  0
   22.5879  -21.4406  -12.2158 N   0  0  0  0  0  0  0  0  0  0  0  0
   20.3401  -21.4315  -11.5963 C   0  0  0  0  0  0  0  0  0  0  0  0
   20.7150  -22.1487  -10.6554 O   0  0  0  0  0  0  0  0  0  0  0  0
   19.0194  -21.0454  -11.6040 O   0  0  0  0  0  0  0  0  0  0  0  0
  2  1  1  0
  3  2  2  0
  4  3  1  0
  5  4  2  0
  5 11  1  0
  6  5  1  0
  7  6  1  0
  7  9  1  0
  7  8  1  6
  9 10  2  0
 11 12  2  0
 12  2  1  0
 13 14  1  0
 15 14  1  0
 15 17  1  0
 15 16  1  1
 17 18  1  6
 18  9  1  0
 19 17  1  0
 19 20  2  0
 21 22  1  0
 22 24  1  0
 23 22  2  0
 25 24  1  6
 25 26  1  0
 25 27  1  0
 26 19  1  0
 27 29  1  0
 28 27  2  0
M  END
$$$$
