YIN.pdb
     RDKit          3D

 29 29  0  0  1  0  0  0  0  0999 V2000
   31.9276  -30.2759  -19.2056 O   0  0  0  0  0  0  0  0  0  0  0  0
   30.9697  -29.4266  -18.6552 C   0  0  0  0  0  0  0  0  0  0  0  0
   31.3356  -28.6689  -17.5605 C   0  0  0  0  0  0  0  0  0  0  0  0
   30.3950  -27.8160  -16.9966 C   0  0  0  0  0  0  0  0  0  0  0  0
   29.1327  -27.7290  -17.5157 C   0  0  0  0  0  0  0  0  0  0  0  0
   28.1494  -26.8075  -16.8910 C   0  0  0  0  0  0  0  0  0  0  0  0
   28.0480  -25.5285  -17.6718 C   0  0  2  0  0  0  0  0  0  0  0  0
   29.2305  -24.7190  -17.6045 N   0  0  0  0  0  0  0  0  0  0  0  0
   26.8255  -24.8108  -17.2247 C   0  0  0  0  0  0  0  0  0  0  0  0
   26.9358  -23.8987  -16.3839 O   0  0  0  0  0  0  0  0  0  0  0  0
   28.7847  -28.4916  -18.6077 C   0  0  0  0  0  0  0  0  0  0  0  0
   29.7064  -29.3501  -19.1874 C   0  0  0  0  0  0  0  0  0  0  0  0
   24.5553  -22.2160  -20.4933 C   0  0  0  0  0  0  0  0  0  0  0  0
   24.8930  -22.7300  -19.1382 C   0  0  0  0  0  0  0  0  0  0  0  0
   23.8264  -23.6953  -18.5796 C   0  0  2  0  0  0  0  0  0  0  0  0
   22.5522  -22.9201  -18.3329 C   0  0  0  0  0  0  0  0  0  0  0  0
   24.3309  -24.3488  -17.3412 C   0  0  2  0  0  0  0  0  0  0  0  0
   25.5489  -25.1260  -17.7180 N   0  0  0  0  0  0  0  0  0  0  0  0
   23.4126  -25.2133  -16.6107 C   0  0  0  0  0  0  0  0  0  0  0  0
   23.8611  -26.3602  -16.2115 O   0  0  0  0  0  0  0  0  0  0  0  0
   21.6857  -27.5221  -12.6234 N   0  0  0  0  0  0  0  0  0  0  0  0
   21.4853  -26.0948  -12.7380 C   0  0  0  0  0  0  0  0  0  0  0  0
   20.7778  -25.5693  -11.8542 O   0  0  0  0  0  0  0  0  0  0  0  0
   22.1079  -25.3797  -13.8524 C   0  0  0  0  0  0  0  0  0  0  0  0
   21.4131  -25.6985  -15.1473 C   0  0  2  0  0  0  0  0  0  0  0  0
   22.0794  -24.9935  -16.2549 N   0  0  0  0  0  0  0  0  0  0  0  0
   20.0497  -25.1602  -15.1197 C   0  0  0  0  0  0  0  0  0  0  0  0
   19.1323  -25.7234  -14.5020 O   0  0  0  0  0  0  0  0  0  0  0  0
   19.7369  -23.9975  -15.7859 O   0  0  0  0  0  0  0  0  0  0  0  0
  2  1  1  0
  3  2  2  0
  4  3  1  0
  5  4  2  0
  5 11  1  0
  6  5  1  0
  7  6  1  0
  7  9  1  0
  7  8  1  1
  9 10  2  0
 11 12  2  0
 12  2  1  0
 13 14  1  0
 15 14  1  0
 15 17  1  0
 15 16  1  1
 17 18  1  6
 18  9  1  0
 19 17  1  0
 19 20  2  0
 21 22  1  0
 22 24  1  0
 23 22  2  0
 25 24  1  1
 25 26  1  0
 25 27  1  0
 26 19  1  0
 27 29  1  0
 28 27  2  0
M  END
$$$$
