YIN.pdb
     RDKit          3D

 29 29  0  0  1  0  0  0  0  0999 V2000
   24.3587  -15.4446  -20.7811 O   0  0  0  0  0  0  0  0  0  0  0  0
   24.3595  -16.6286  -20.0462 C   0  0  0  0  0  0  0  0  0  0  0  0
   23.2920  -16.8619  -19.2022 C   0  0  0  0  0  0  0  0  0  0  0  0
   23.2738  -18.0365  -18.4605 C   0  0  0  0  0  0  0  0  0  0  0  0
   24.2927  -18.9428  -18.5648 C   0  0  0  0  0  0  0  0  0  0  0  0
   24.2446  -20.1898  -17.7591 C   0  0  0  0  0  0  0  0  0  0  0  0
   25.4336  -20.2796  -16.8459 C   0  0  2  0  0  0  0  0  0  0  0  0
   26.6286  -20.7283  -17.5008 N   0  0  0  0  0  0  0  0  0  0  0  0
   25.0576  -21.1221  -15.6805 C   0  0  0  0  0  0  0  0  0  0  0  0
   25.2797  -22.3468  -15.7256 O   0  0  0  0  0  0  0  0  0  0  0  0
   25.3495  -18.6944  -19.4114 C   0  0  0  0  0  0  0  0  0  0  0  0
   25.3896  -17.5290  -20.1616 C   0  0  0  0  0  0  0  0  0  0  0  0
   25.5807  -21.4714   -9.8173 C   0  0  0  0  0  0  0  0  0  0  0  0
   24.7087  -21.8334  -10.9675 C   0  0  0  0  0  0  0  0  0  0  0  0
   24.9711  -20.9652  -12.2160 C   0  0  2  0  0  0  0  0  0  0  0  0
   24.7193  -19.5172  -11.8617 C   0  0  0  0  0  0  0  0  0  0  0  0
   24.1120  -21.4216  -13.3425 C   0  0  2  0  0  0  0  0  0  0  0  0
   24.4598  -20.5845  -14.5289 N   0  0  0  0  0  0  0  0  0  0  0  0
   22.6684  -21.4016  -13.1431 C   0  0  0  0  0  0  0  0  0  0  0  0
   22.0092  -20.4077  -13.6463 O   0  0  0  0  0  0  0  0  0  0  0  0
   17.7164  -21.0797  -11.2282 N   0  0  0  0  0  0  0  0  0  0  0  0
   18.5530  -20.5865  -12.2993 C   0  0  0  0  0  0  0  0  0  0  0  0
   17.9581  -20.0371  -13.2491 O   0  0  0  0  0  0  0  0  0  0  0  0
   20.0027  -20.7595  -12.2024 C   0  0  0  0  0  0  0  0  0  0  0  0
   20.3852  -22.1979  -12.4167 C   0  0  2  0  0  0  0  0  0  0  0  0
   21.8513  -22.3181  -12.4763 N   0  0  0  0  0  0  0  0  0  0  0  0
   19.9136  -22.6417  -13.7319 C   0  0  0  0  0  0  0  0  0  0  0  0
   20.4783  -22.3004  -14.7830 O   0  0  0  0  0  0  0  0  0  0  0  0
   18.8150  -23.4623  -13.8472 O   0  0  0  0  0  0  0  0  0  0  0  0
  2  1  1  0
  3  2  2  0
  4  3  1  0
  5  4  2  0
  5 11  1  0
  6  5  1  0
  7  6  1  0
  7  9  1  0
  7  8  1  6
  9 10  2  0
 11 12  2  0
 12  2  1  0
 13 14  1  0
 15 14  1  0
 15 17  1  0
 15 16  1  1
 17 18  1  6
 18  9  1  0
 19 17  1  0
 19 20  2  0
 21 22  1  0
 22 24  1  0
 23 22  2  0
 25 24  1  6
 25 26  1  0
 25 27  1  0
 26 19  1  0
 27 29  1  0
 28 27  2  0
M  END
$$$$
