YIN.pdb
     RDKit          3D

 29 29  0  0  1  0  0  0  0  0999 V2000
   23.5106  -14.5347  -19.5913 O   0  0  0  0  0  0  0  0  0  0  0  0
   23.3033  -15.6251  -18.7487 C   0  0  0  0  0  0  0  0  0  0  0  0
   22.7985  -15.3762  -17.4879 C   0  0  0  0  0  0  0  0  0  0  0  0
   22.5848  -16.4498  -16.6323 C   0  0  0  0  0  0  0  0  0  0  0  0
   22.8686  -17.7267  -17.0315 C   0  0  0  0  0  0  0  0  0  0  0  0
   22.6289  -18.8539  -16.0942 C   0  0  0  0  0  0  0  0  0  0  0  0
   23.9181  -19.3178  -15.4790 C   0  0  2  0  0  0  0  0  0  0  0  0
   24.8593  -19.8285  -16.4336 N   0  0  0  0  0  0  0  0  0  0  0  0
   23.5922  -20.2922  -14.4048 C   0  0  0  0  0  0  0  0  0  0  0  0
   23.2269  -21.4397  -14.7226 O   0  0  0  0  0  0  0  0  0  0  0  0
   23.3712  -17.9570  -18.2923 C   0  0  0  0  0  0  0  0  0  0  0  0
   23.5930  -16.9014  -19.1636 C   0  0  0  0  0  0  0  0  0  0  0  0
   26.4584  -20.4811   -9.9196 C   0  0  0  0  0  0  0  0  0  0  0  0
   25.5626  -20.9110  -11.0273 C   0  0  0  0  0  0  0  0  0  0  0  0
   24.0782  -20.5854  -10.7593 C   0  0  2  0  0  0  0  0  0  0  0  0
   23.6234  -21.3604   -9.5435 C   0  0  0  0  0  0  0  0  0  0  0  0
   23.2622  -20.9051  -11.9624 C   0  0  2  0  0  0  0  0  0  0  0  0
   23.6820  -19.9634  -13.0423 N   0  0  0  0  0  0  0  0  0  0  0  0
   21.8117  -20.8677  -11.8251 C   0  0  0  0  0  0  0  0  0  0  0  0
   21.2618  -19.7171  -11.6023 O   0  0  0  0  0  0  0  0  0  0  0  0
   16.7374  -21.6630  -11.6168 N   0  0  0  0  0  0  0  0  0  0  0  0
   17.3236  -21.4854  -12.9266 C   0  0  0  0  0  0  0  0  0  0  0  0
   16.5210  -21.2977  -13.8639 O   0  0  0  0  0  0  0  0  0  0  0  0
   18.7794  -21.5363  -13.0635 C   0  0  0  0  0  0  0  0  0  0  0  0
   19.4366  -21.7183  -11.7233 C   0  0  2  0  0  0  0  0  0  0  0  0
   20.8852  -21.9107  -11.9028 N   0  0  0  0  0  0  0  0  0  0  0  0
   18.9615  -22.9607  -11.1070 C   0  0  0  0  0  0  0  0  0  0  0  0
   19.6757  -23.9729  -11.0318 O   0  0  0  0  0  0  0  0  0  0  0  0
   17.6916  -23.0480  -10.5843 O   0  0  0  0  0  0  0  0  0  0  0  0
  2  1  1  0
  3  2  2  0
  4  3  1  0
  5  4  2  0
  5 11  1  0
  6  5  1  0
  7  6  1  0
  7  9  1  0
  7  8  1  6
  9 10  2  0
 11 12  2  0
 12  2  1  0
 13 14  1  0
 15 14  1  0
 15 17  1  0
 15 16  1  1
 17 18  1  6
 18  9  1  0
 19 17  1  0
 19 20  2  0
 21 22  1  0
 22 24  1  0
 23 22  2  0
 25 24  1  6
 25 26  1  0
 25 27  1  0
 26 19  1  0
 27 29  1  0
 28 27  2  0
M  END
$$$$
