CVI.pdb
     RDKit          3D

 22 21  0  0  1  0  0  0  0  0999 V2000
   26.1835  -22.5153  -12.9836 N   0  0  0  0  0  0  0  0  0  0  0  0
   26.9139  -21.2841  -13.1061 C   0  0  1  0  0  0  0  0  0  0  0  0
   26.5705  -20.6514  -14.4182 C   0  0  0  0  0  0  0  0  0  0  0  0
   27.0786  -21.7920  -15.7369 S   0  0  0  0  0  0  0  0  0  0  0  0
   26.6446  -20.4180  -11.9400 C   0  0  0  0  0  0  0  0  0  0  0  0
   26.8399  -19.1756  -12.0136 O   0  0  0  0  0  0  0  0  0  0  0  0
   23.6253  -19.7483  -10.4199 C   0  0  0  0  0  0  0  0  0  0  0  0
   24.4605  -20.1889   -9.2224 C   0  0  1  0  0  0  0  0  0  0  0  0
   24.0559  -21.5871   -8.8861 C   0  0  0  0  0  0  0  0  0  0  0  0
   25.9489  -20.0797   -9.5478 C   0  0  2  0  0  0  0  0  0  0  0  0
   26.1626  -20.9396  -10.7080 N   0  0  0  0  0  0  0  0  0  0  0  0
   26.6769  -20.6124   -8.3716 C   0  0  0  0  0  0  0  0  0  0  0  0
   26.9492  -21.8369   -8.3322 O   0  0  0  0  0  0  0  0  0  0  0  0
   30.3661  -17.5550   -5.7157 C   0  0  0  0  0  0  0  0  0  0  0  0
   29.6383  -18.7353   -6.2731 C   0  0  0  0  0  0  0  0  0  0  0  0
   28.5240  -19.2410   -5.3842 C   0  0  2  0  0  0  0  0  0  0  0  0
   29.0505  -19.8087   -4.0911 C   0  0  0  0  0  0  0  0  0  0  0  0
   27.7163  -20.3122   -6.0828 C   0  0  2  0  0  0  0  0  0  0  0  0
   27.0824  -19.8035   -7.2842 N   0  0  0  0  0  0  0  0  0  0  0  0
   26.6746  -20.8090   -5.1168 C   0  0  0  0  0  0  0  0  0  0  0  0
   25.5010  -20.3334   -5.2019 O   0  0  0  0  0  0  0  0  0  0  0  0
   26.9104  -21.7441   -4.1484 O   0  0  0  0  0  0  0  0  0  0  0  0
  2  1  1  1
  3  2  1  0
  4  3  1  0
  5  2  1  0
  5  6  2  0
  8  7  1  6
  8 10  1  0
  9  8  1  0
 10 11  1  6
 10 12  1  0
 11  5  1  0
 12 19  1  0
 13 12  2  0
 15 14  1  0
 16 17  1  1
 16 15  1  0
 18 16  1  0
 18 19  1  6
 20 22  1  0
 20 18  1  0
 21 20  2  0
M  END
$$$$
