CVI.pdb
     RDKit          3D

 22 21  0  0  1  0  0  0  0  0999 V2000
   22.7689  -15.8056  -18.4031 N   0  0  0  0  0  0  0  0  0  0  0  0
   23.0168  -14.4395  -18.7727 C   0  0  1  0  0  0  0  0  0  0  0  0
   21.9654  -14.0078  -19.7464 C   0  0  0  0  0  0  0  0  0  0  0  0
   22.2982  -14.8344  -21.3288 S   0  0  0  0  0  0  0  0  0  0  0  0
   23.0905  -13.5937  -17.5637 C   0  0  0  0  0  0  0  0  0  0  0  0
   22.2314  -13.7157  -16.6504 O   0  0  0  0  0  0  0  0  0  0  0  0
   26.4440  -11.1355  -16.9766 C   0  0  0  0  0  0  0  0  0  0  0  0
   25.6104  -11.6494  -15.8075 C   0  0  1  0  0  0  0  0  0  0  0  0
   25.8182  -10.7105  -14.6642 C   0  0  0  0  0  0  0  0  0  0  0  0
   24.1411  -11.7527  -16.2117 C   0  0  2  0  0  0  0  0  0  0  0  0
   24.1149  -12.6241  -17.3826 N   0  0  0  0  0  0  0  0  0  0  0  0
   23.7088  -10.3834  -16.5797 C   0  0  0  0  0  0  0  0  0  0  0  0
   24.0684   -9.9121  -17.6859 O   0  0  0  0  0  0  0  0  0  0  0  0
   19.3331   -7.3834  -18.4067 C   0  0  0  0  0  0  0  0  0  0  0  0
   20.4777   -7.2360  -17.4571 C   0  0  0  0  0  0  0  0  0  0  0  0
   21.1190   -8.5486  -17.0655 C   0  0  2  0  0  0  0  0  0  0  0  0
   20.1453   -9.4639  -16.3685 C   0  0  0  0  0  0  0  0  0  0  0  0
   22.3020   -8.3228  -16.1504 C   0  0  2  0  0  0  0  0  0  0  0  0
   22.9055   -9.5763  -15.7401 N   0  0  0  0  0  0  0  0  0  0  0  0
   21.8159   -7.5621  -14.9462 C   0  0  0  0  0  0  0  0  0  0  0  0
   21.5113   -8.2186  -13.9036 O   0  0  0  0  0  0  0  0  0  0  0  0
   21.6802   -6.2029  -14.9010 O   0  0  0  0  0  0  0  0  0  0  0  0
  2  1  1  1
  3  2  1  0
  4  3  1  0
  5  2  1  0
  5  6  2  0
  8  7  1  6
  8 10  1  0
  9  8  1  0
 10 11  1  6
 10 12  1  0
 11  5  1  0
 12 19  1  0
 13 12  2  0
 15 14  1  0
 16 17  1  1
 16 15  1  0
 18 16  1  0
 18 19  1  1
 20 22  1  0
 20 18  1  0
 21 20  2  0
M  END
$$$$
