CVI.pdb
     RDKit          3D

 22 21  0  0  1  0  0  0  0  0999 V2000
   27.3145  -21.2360  -13.7001 N   0  0  0  0  0  0  0  0  0  0  0  0
   26.2560  -21.2851  -12.7299 C   0  0  1  0  0  0  0  0  0  0  0  0
   26.7154  -20.5952  -11.4837 C   0  0  0  0  0  0  0  0  0  0  0  0
   27.1201  -21.8716  -10.2569 S   0  0  0  0  0  0  0  0  0  0  0  0
   25.0183  -20.7168  -13.3021 C   0  0  0  0  0  0  0  0  0  0  0  0
   24.9933  -19.5215  -13.6994 O   0  0  0  0  0  0  0  0  0  0  0  0
   23.6393  -20.8500  -16.2150 C   0  0  0  0  0  0  0  0  0  0  0  0
   22.4735  -21.3754  -15.3839 C   0  0  1  0  0  0  0  0  0  0  0  0
   22.4909  -22.8659  -15.4824 C   0  0  0  0  0  0  0  0  0  0  0  0
   22.5927  -20.8895  -13.9407 C   0  0  2  0  0  0  0  0  0  0  0  0
   23.8249  -21.4800  -13.4267 N   0  0  0  0  0  0  0  0  0  0  0  0
   21.4200  -21.4335  -13.2155 C   0  0  0  0  0  0  0  0  0  0  0  0
   21.4530  -22.6234  -12.8178 O   0  0  0  0  0  0  0  0  0  0  0  0
   20.6590  -19.8066   -8.7493 C   0  0  0  0  0  0  0  0  0  0  0  0
   20.5542  -20.5336  -10.0508 C   0  0  0  0  0  0  0  0  0  0  0  0
   19.2257  -20.3468  -10.7492 C   0  0  2  0  0  0  0  0  0  0  0  0
   18.0733  -20.8181   -9.8999 C   0  0  0  0  0  0  0  0  0  0  0  0
   19.1919  -21.0989  -12.0610 C   0  0  2  0  0  0  0  0  0  0  0  0
   20.2577  -20.6727  -12.9476 N   0  0  0  0  0  0  0  0  0  0  0  0
   17.8530  -20.8499  -12.7018 C   0  0  0  0  0  0  0  0  0  0  0  0
   17.7064  -19.7991  -13.3983 O   0  0  0  0  0  0  0  0  0  0  0  0
   16.7783  -21.6858  -12.5826 O   0  0  0  0  0  0  0  0  0  0  0  0
  2  1  1  6
  3  2  1  0
  4  3  1  0
  5  2  1  0
  5  6  2  0
  8  7  1  6
  8 10  1  0
  9  8  1  0
 10 11  1  1
 10 12  1  0
 11  5  1  0
 12 19  1  0
 13 12  2  0
 15 14  1  0
 16 17  1  1
 16 15  1  0
 18 16  1  0
 18 19  1  6
 20 22  1  0
 20 18  1  0
 21 20  2  0
M  END
$$$$
