CVI.pdb
     RDKit          3D

 22 21  0  0  1  0  0  0  0  0999 V2000
   18.5828  -14.8929  -19.8006 N   0  0  0  0  0  0  0  0  0  0  0  0
   18.4953  -14.3886  -18.4581 C   0  0  1  0  0  0  0  0  0  0  0  0
   19.2454  -15.3114  -17.5494 C   0  0  0  0  0  0  0  0  0  0  0  0
   18.1292  -16.6671  -17.0867 S   0  0  0  0  0  0  0  0  0  0  0  0
   18.9714  -12.9909  -18.4107 C   0  0  0  0  0  0  0  0  0  0  0  0
   19.9866  -12.6435  -19.0708 O   0  0  0  0  0  0  0  0  0  0  0  0
   17.7324   -8.3193  -17.4823 C   0  0  0  0  0  0  0  0  0  0  0  0
   17.4694   -9.7807  -17.8303 C   0  0  1  0  0  0  0  0  0  0  0  0
   16.9535   -9.8200  -19.2317 C   0  0  0  0  0  0  0  0  0  0  0  0
   18.7461  -10.6019  -17.6605 C   0  0  2  0  0  0  0  0  0  0  0  0
   18.3165  -11.9968  -17.6328 N   0  0  0  0  0  0  0  0  0  0  0  0
   19.3238  -10.2154  -16.3512 C   0  0  0  0  0  0  0  0  0  0  0  0
   18.6553  -10.4235  -15.3097 O   0  0  0  0  0  0  0  0  0  0  0  0
   23.9744  -11.8802  -14.9714 C   0  0  0  0  0  0  0  0  0  0  0  0
   22.6126  -11.2727  -15.0710 C   0  0  0  0  0  0  0  0  0  0  0  0
   22.5849   -9.7868  -14.7899 C   0  0  2  0  0  0  0  0  0  0  0  0
   23.0683   -9.4692  -13.3981 C   0  0  0  0  0  0  0  0  0  0  0  0
   21.1875   -9.2304  -14.9492 C   0  0  2  0  0  0  0  0  0  0  0  0
   20.6000   -9.6197  -16.2169 N   0  0  0  0  0  0  0  0  0  0  0  0
   21.2740   -7.7307  -14.8560 C   0  0  0  0  0  0  0  0  0  0  0  0
   21.3909   -7.2060  -13.7064 O   0  0  0  0  0  0  0  0  0  0  0  0
   21.2350   -6.8917  -15.9342 O   0  0  0  0  0  0  0  0  0  0  0  0
  2  1  1  6
  3  2  1  0
  4  3  1  0
  5  2  1  0
  5  6  2  0
  8  7  1  6
  8 10  1  0
  9  8  1  0
 10 11  1  1
 10 12  1  0
 11  5  1  0
 12 19  1  0
 13 12  2  0
 15 14  1  0
 16 17  1  1
 16 15  1  0
 18 16  1  0
 18 19  1  6
 20 22  1  0
 20 18  1  0
 21 20  2  0
M  END
$$$$
