CVI.pdb
     RDKit          3D

 22 21  0  0  1  0  0  0  0  0999 V2000
   16.6812  -15.2743  -18.1159 N   0  0  0  0  0  0  0  0  0  0  0  0
   17.4363  -14.7244  -17.0243 C   0  0  1  0  0  0  0  0  0  0  0  0
   18.3879  -15.7667  -16.5264 C   0  0  0  0  0  0  0  0  0  0  0  0
   17.8235  -16.2978  -14.8840 S   0  0  0  0  0  0  0  0  0  0  0  0
   18.0948  -13.4708  -17.4454 C   0  0  0  0  0  0  0  0  0  0  0  0
   18.9240  -13.4771  -18.3938 O   0  0  0  0  0  0  0  0  0  0  0  0
   16.2412  -10.0371  -16.7083 C   0  0  0  0  0  0  0  0  0  0  0  0
   17.3837  -10.0712  -17.7180 C   0  0  1  0  0  0  0  0  0  0  0  0
   17.8588   -8.6670  -17.9023 C   0  0  0  0  0  0  0  0  0  0  0  0
   18.4943  -10.9982  -17.2276 C   0  0  2  0  0  0  0  0  0  0  0  0
   17.8260  -12.2272  -16.8104 N   0  0  0  0  0  0  0  0  0  0  0  0
   19.1161  -10.3288  -16.0603 C   0  0  0  0  0  0  0  0  0  0  0  0
   18.5373  -10.3904  -14.9484 O   0  0  0  0  0  0  0  0  0  0  0  0
   23.8541  -11.6669  -14.8537 C   0  0  0  0  0  0  0  0  0  0  0  0
   22.4765  -11.0876  -14.8440 C   0  0  0  0  0  0  0  0  0  0  0  0
   22.4493   -9.5763  -14.8960 C   0  0  2  0  0  0  0  0  0  0  0  0
   23.0981   -8.9605  -13.6830 C   0  0  0  0  0  0  0  0  0  0  0  0
   21.0301   -9.0621  -14.9921 C   0  0  2  0  0  0  0  0  0  0  0  0
   20.3376   -9.6195  -16.1383 N   0  0  0  0  0  0  0  0  0  0  0  0
   21.0886   -7.5621  -15.1001 C   0  0  0  0  0  0  0  0  0  0  0  0
   21.2535   -7.0484  -16.2488 O   0  0  0  0  0  0  0  0  0  0  0  0
   20.9749   -6.7116  -14.0363 O   0  0  0  0  0  0  0  0  0  0  0  0
  2  1  1  6
  3  2  1  0
  4  3  1  0
  5  2  1  0
  5  6  2  0
  8  7  1  1
  8 10  1  0
  9  8  1  0
 10 11  1  1
 10 12  1  0
 11  5  1  0
 12 19  1  0
 13 12  2  0
 15 14  1  0
 16 17  1  1
 16 15  1  0
 18 16  1  0
 18 19  1  6
 20 22  1  0
 20 18  1  0
 21 20  2  0
M  END
$$$$
