CVI.pdb
     RDKit          3D

 22 21  0  0  1  0  0  0  0  0999 V2000
   29.3927  -10.8864  -19.2315 N   0  0  0  0  0  0  0  0  0  0  0  0
   28.9171   -9.8234  -18.3901 C   0  0  1  0  0  0  0  0  0  0  0  0
   29.5541   -8.5424  -18.8297 C   0  0  0  0  0  0  0  0  0  0  0  0
   28.8612   -7.2005  -17.8212 S   0  0  0  0  0  0  0  0  0  0  0  0
   27.4403   -9.7885  -18.4049 C   0  0  0  0  0  0  0  0  0  0  0  0
   26.8156   -9.8210  -19.4984 O   0  0  0  0  0  0  0  0  0  0  0  0
   25.1095  -12.0845  -17.7430 C   0  0  0  0  0  0  0  0  0  0  0  0
   24.7166  -10.9928  -16.7532 C   0  0  1  0  0  0  0  0  0  0  0  0
   25.2905  -11.3661  -15.4255 C   0  0  0  0  0  0  0  0  0  0  0  0
   25.2181   -9.6343  -17.2390 C   0  0  2  0  0  0  0  0  0  0  0  0
   26.6752   -9.7183  -17.2082 N   0  0  0  0  0  0  0  0  0  0  0  0
   24.7397   -8.6332  -16.2561 C   0  0  0  0  0  0  0  0  0  0  0  0
   25.3830   -8.4765  -15.1900 O   0  0  0  0  0  0  0  0  0  0  0  0
   24.9111   -3.8122  -17.0052 C   0  0  0  0  0  0  0  0  0  0  0  0
   24.6843   -5.1862  -16.4628 C   0  0  0  0  0  0  0  0  0  0  0  0
   23.2550   -5.4488  -16.0436 C   0  0  2  0  0  0  0  0  0  0  0  0
   22.7957   -4.4857  -14.9791 C   0  0  0  0  0  0  0  0  0  0  0  0
   23.0945   -6.8571  -15.5156 C   0  0  2  0  0  0  0  0  0  0  0  0
   23.5861   -7.8405  -16.4618 N   0  0  0  0  0  0  0  0  0  0  0  0
   21.6318   -7.0845  -15.2436 C   0  0  0  0  0  0  0  0  0  0  0  0
   20.8868   -7.4269  -16.2123 O   0  0  0  0  0  0  0  0  0  0  0  0
   21.0496   -6.9460  -14.0149 O   0  0  0  0  0  0  0  0  0  0  0  0
  2  1  1  6
  3  2  1  0
  4  3  1  0
  5  2  1  0
  5  6  2  0
  8  7  1  6
  8 10  1  0
  9  8  1  0
 10 11  1  1
 10 12  1  0
 11  5  1  0
 12 19  1  0
 13 12  2  0
 15 14  1  0
 16 17  1  1
 16 15  1  0
 18 16  1  0
 18 19  1  6
 20 22  1  0
 20 18  1  0
 21 20  2  0
M  END
$$$$
