CVI.pdb
     RDKit          3D

 22 21  0  0  1  0  0  0  0  0999 V2000
   17.8649  -14.1825  -16.5147 N   0  0  0  0  0  0  0  0  0  0  0  0
   18.3872  -13.0407  -17.2133 C   0  0  1  0  0  0  0  0  0  0  0  0
   17.2741  -12.3968  -17.9790 C   0  0  0  0  0  0  0  0  0  0  0  0
   16.8325  -13.4988  -19.3533 S   0  0  0  0  0  0  0  0  0  0  0  0
   19.0597  -12.1306  -16.2637 C   0  0  0  0  0  0  0  0  0  0  0  0
   18.5118  -11.8397  -15.1672 O   0  0  0  0  0  0  0  0  0  0  0  0
   23.0850  -11.2678  -16.7794 C   0  0  0  0  0  0  0  0  0  0  0  0
   22.3921  -11.1378  -15.4270 C   0  0  1  0  0  0  0  0  0  0  0  0
   23.2190  -10.2191  -14.5881 C   0  0  0  0  0  0  0  0  0  0  0  0
   20.9651  -10.6254  -15.6120 C   0  0  2  0  0  0  0  0  0  0  0  0
   20.3301  -11.5550  -16.5413 N   0  0  0  0  0  0  0  0  0  0  0  0
   21.0772   -9.2807  -16.2256 C   0  0  0  0  0  0  0  0  0  0  0  0
   21.3769   -9.1933  -17.4412 O   0  0  0  0  0  0  0  0  0  0  0  0
   18.0529   -5.0861  -18.2979 C   0  0  0  0  0  0  0  0  0  0  0  0
   19.2576   -5.2485  -17.4286 C   0  0  0  0  0  0  0  0  0  0  0  0
   19.4239   -6.6443  -16.8703 C   0  0  2  0  0  0  0  0  0  0  0  0
   18.2977   -7.0152  -15.9399 C   0  0  0  0  0  0  0  0  0  0  0  0
   20.7291   -6.7755  -16.1172 C   0  0  2  0  0  0  0  0  0  0  0  0
   20.8616   -8.0832  -15.5039 N   0  0  0  0  0  0  0  0  0  0  0  0
   20.7641   -5.7018  -15.0630 C   0  0  0  0  0  0  0  0  0  0  0  0
   21.0581   -4.5197  -15.4191 O   0  0  0  0  0  0  0  0  0  0  0  0
   20.4983   -5.9172  -13.7399 O   0  0  0  0  0  0  0  0  0  0  0  0
  2  1  1  1
  3  2  1  0
  4  3  1  0
  5  2  1  0
  5  6  2  0
  8  7  1  6
  8 10  1  0
  9  8  1  0
 10 11  1  6
 10 12  1  0
 11  5  1  0
 12 19  1  0
 13 12  2  0
 15 14  1  0
 16 17  1  1
 16 15  1  0
 18 16  1  0
 18 19  1  1
 20 22  1  0
 20 18  1  0
 21 20  2  0
M  END
$$$$
