CVI.pdb
     RDKit          3D

 22 21  0  0  1  0  0  0  0  0999 V2000
   29.1491  -19.9967  -18.8407 N   0  0  0  0  0  0  0  0  0  0  0  0
   28.4688  -20.9061  -17.9606 C   0  0  1  0  0  0  0  0  0  0  0  0
   29.1365  -22.2430  -18.0429 C   0  0  0  0  0  0  0  0  0  0  0  0
   28.3092  -23.3526  -16.8673 S   0  0  0  0  0  0  0  0  0  0  0  0
   28.4225  -20.3479  -16.5937 C   0  0  0  0  0  0  0  0  0  0  0  0
   29.4868  -20.0137  -16.0082 O   0  0  0  0  0  0  0  0  0  0  0  0
   27.5472  -17.3036  -15.4998 C   0  0  0  0  0  0  0  0  0  0  0  0
   26.5791  -18.1892  -14.7223 C   0  0  1  0  0  0  0  0  0  0  0  0
   25.2866  -18.2027  -15.4712 C   0  0  0  0  0  0  0  0  0  0  0  0
   27.1644  -19.5899  -14.5531 C   0  0  2  0  0  0  0  0  0  0  0  0
   27.1980  -20.1673  -15.8935 N   0  0  0  0  0  0  0  0  0  0  0  0
   26.2183  -20.3402  -13.6933 C   0  0  0  0  0  0  0  0  0  0  0  0
   25.4897  -21.2174  -14.2173 O   0  0  0  0  0  0  0  0  0  0  0  0
   27.1434  -20.3871   -8.1863 C   0  0  0  0  0  0  0  0  0  0  0  0
   26.7249  -20.9692   -9.4976 C   0  0  0  0  0  0  0  0  0  0  0  0
   25.3821  -20.4726   -9.9853 C   0  0  2  0  0  0  0  0  0  0  0  0
   24.2442  -21.0511   -9.1839 C   0  0  0  0  0  0  0  0  0  0  0  0
   25.1693  -20.8248  -11.4408 C   0  0  2  0  0  0  0  0  0  0  0  0
   26.0953  -20.1146  -12.3021 N   0  0  0  0  0  0  0  0  0  0  0  0
   23.7511  -20.4704  -11.7993 C   0  0  0  0  0  0  0  0  0  0  0  0
   23.4880  -19.2625  -12.0861 O   0  0  0  0  0  0  0  0  0  0  0  0
   22.7221  -21.3690  -11.8367 O   0  0  0  0  0  0  0  0  0  0  0  0
  2  1  1  6
  3  2  1  0
  4  3  1  0
  5  2  1  0
  5  6  2  0
  8  7  1  6
  8 10  1  0
  9  8  1  0
 10 11  1  6
 10 12  1  0
 11  5  1  0
 12 19  1  0
 13 12  2  0
 15 14  1  0
 16 17  1  1
 16 15  1  0
 18 16  1  0
 18 19  1  6
 20 22  1  0
 20 18  1  0
 21 20  2  0
M  END
$$$$
