CVI.pdb
     RDKit          3D

 22 21  0  0  1  0  0  0  0  0999 V2000
   23.2391  -12.7489  -20.0528 N   0  0  0  0  0  0  0  0  0  0  0  0
   23.5784  -11.3675  -19.8501 C   0  0  1  0  0  0  0  0  0  0  0  0
   23.3772  -10.6305  -21.1370 C   0  0  0  0  0  0  0  0  0  0  0  0
   24.7974  -10.9868  -22.2113 S   0  0  0  0  0  0  0  0  0  0  0  0
   22.8010  -10.8160  -18.7214 C   0  0  0  0  0  0  0  0  0  0  0  0
   21.5561  -10.9990  -18.6587 O   0  0  0  0  0  0  0  0  0  0  0  0
   22.8101  -11.8531  -15.4935 C   0  0  0  0  0  0  0  0  0  0  0  0
   23.1474  -10.3746  -15.3313 C   0  0  1  0  0  0  0  0  0  0  0  0
   24.6283  -10.2702  -15.1649 C   0  0  0  0  0  0  0  0  0  0  0  0
   22.6432   -9.5827  -16.5362 C   0  0  2  0  0  0  0  0  0  0  0  0
   23.4128  -10.0692  -17.6773 N   0  0  0  0  0  0  0  0  0  0  0  0
   22.9634   -8.1603  -16.2686 C   0  0  0  0  0  0  0  0  0  0  0  0
   24.1351   -7.7563  -16.4660 O   0  0  0  0  0  0  0  0  0  0  0  0
   20.7354   -4.3553  -18.7117 C   0  0  0  0  0  0  0  0  0  0  0  0
   21.6669   -5.1250  -17.8323 C   0  0  0  0  0  0  0  0  0  0  0  0
   21.4243   -4.9154  -16.3542 C   0  0  2  0  0  0  0  0  0  0  0  0
   21.6993   -3.4938  -15.9357 C   0  0  0  0  0  0  0  0  0  0  0  0
   22.2944   -5.8344  -15.5258 C   0  0  2  0  0  0  0  0  0  0  0  0
   22.0071   -7.2297  -15.7987 N   0  0  0  0  0  0  0  0  0  0  0  0
   22.0410   -5.5264  -14.0746 C   0  0  0  0  0  0  0  0  0  0  0  0
   21.0683   -6.1037  -13.4989 O   0  0  0  0  0  0  0  0  0  0  0  0
   22.7938   -4.6612  -13.3314 O   0  0  0  0  0  0  0  0  0  0  0  0
  2  1  1  6
  3  2  1  0
  4  3  1  0
  5  2  1  0
  5  6  2  0
  8  7  1  6
  8 10  1  0
  9  8  1  0
 10 11  1  6
 10 12  1  0
 11  5  1  0
 12 19  1  0
 13 12  2  0
 15 14  1  0
 16 17  1  1
 16 15  1  0
 18 16  1  0
 18 19  1  1
 20 22  1  0
 20 18  1  0
 21 20  2  0
M  END
$$$$
