CVI.pdb
     RDKit          3D

 22 21  0  0  1  0  0  0  0  0999 V2000
   19.9864  -14.8785  -19.9874 N   0  0  0  0  0  0  0  0  0  0  0  0
   19.3184  -13.9463  -19.1219 C   0  0  1  0  0  0  0  0  0  0  0  0
   19.2608  -14.5279  -17.7441 C   0  0  0  0  0  0  0  0  0  0  0  0
   17.9190  -15.7512  -17.7111 S   0  0  0  0  0  0  0  0  0  0  0  0
   19.9864  -12.6302  -19.1841 C   0  0  0  0  0  0  0  0  0  0  0  0
   21.2392  -12.5589  -19.2968 O   0  0  0  0  0  0  0  0  0  0  0  0
   19.4651   -7.7438  -19.7630 C   0  0  0  0  0  0  0  0  0  0  0  0
   19.0765   -9.2012  -19.9886 C   0  0  1  0  0  0  0  0  0  0  0  0
   19.2410   -9.4868  -21.4457 C   0  0  0  0  0  0  0  0  0  0  0  0
   19.9351  -10.1174  -19.1189 C   0  0  2  0  0  0  0  0  0  0  0  0
   19.2578  -11.4106  -19.1206 N   0  0  0  0  0  0  0  0  0  0  0  0
   19.9261   -9.5337  -17.7563 C   0  0  0  0  0  0  0  0  0  0  0  0
   18.8387   -9.4691  -17.1330 O   0  0  0  0  0  0  0  0  0  0  0  0
   23.6087  -11.1809  -14.4825 C   0  0  0  0  0  0  0  0  0  0  0  0
   22.4256  -10.5824  -15.1721 C   0  0  0  0  0  0  0  0  0  0  0  0
   22.3079   -9.0851  -14.9938 C   0  0  2  0  0  0  0  0  0  0  0  0
   22.1550   -8.7022  -13.5441 C   0  0  0  0  0  0  0  0  0  0  0  0
   21.1237   -8.5388  -15.7601 C   0  0  2  0  0  0  0  0  0  0  0  0
   21.0902   -9.0427  -17.1198 N   0  0  0  0  0  0  0  0  0  0  0  0
   21.2296   -7.0375  -15.7653 C   0  0  0  0  0  0  0  0  0  0  0  0
   22.0143   -6.4936  -16.6015 O   0  0  0  0  0  0  0  0  0  0  0  0
   20.5324   -6.2165  -14.9242 O   0  0  0  0  0  0  0  0  0  0  0  0
  2  1  1  6
  3  2  1  0
  4  3  1  0
  5  2  1  0
  5  6  2  0
  8  7  1  6
  8 10  1  0
  9  8  1  0
 10 11  1  1
 10 12  1  0
 11  5  1  0
 12 19  1  0
 13 12  2  0
 15 14  1  0
 16 17  1  1
 16 15  1  0
 18 16  1  0
 18 19  1  6
 20 22  1  0
 20 18  1  0
 21 20  2  0
M  END
$$$$
