CVI.pdb
     RDKit          3D

 22 21  0  0  1  0  0  0  0  0999 V2000
   17.8473  -15.7742  -18.0906 N   0  0  0  0  0  0  0  0  0  0  0  0
   18.1515  -15.0743  -16.8733 C   0  0  1  0  0  0  0  0  0  0  0  0
   19.1924  -15.8456  -16.1239 C   0  0  0  0  0  0  0  0  0  0  0  0
   18.3931  -17.3116  -15.4096 S   0  0  0  0  0  0  0  0  0  0  0  0
   18.5450  -13.6827  -17.1746 C   0  0  0  0  0  0  0  0  0  0  0  0
   19.3998  -13.4442  -18.0689 O   0  0  0  0  0  0  0  0  0  0  0  0
   17.1417   -8.9786  -16.9990 C   0  0  0  0  0  0  0  0  0  0  0  0
   16.9409  -10.4900  -16.9636 C   0  0  1  0  0  0  0  0  0  0  0  0
   16.1854  -10.8690  -18.1954 C   0  0  0  0  0  0  0  0  0  0  0  0
   18.2901  -11.1999  -16.8709 C   0  0  2  0  0  0  0  0  0  0  0  0
   17.9866  -12.5737  -16.4814 N   0  0  0  0  0  0  0  0  0  0  0  0
   19.0518  -10.5173  -15.7980 C   0  0  0  0  0  0  0  0  0  0  0  0
   18.6128  -10.5603  -14.6231 O   0  0  0  0  0  0  0  0  0  0  0  0
   24.0617  -11.4999  -15.0254 C   0  0  0  0  0  0  0  0  0  0  0  0
   22.6397  -11.0408  -15.0021 C   0  0  0  0  0  0  0  0  0  0  0  0
   22.4827   -9.5372  -15.0480 C   0  0  2  0  0  0  0  0  0  0  0  0
   23.1941   -8.8628  -13.9031 C   0  0  0  0  0  0  0  0  0  0  0  0
   21.0233   -9.1423  -15.0032 C   0  0  2  0  0  0  0  0  0  0  0  0
   20.2570   -9.8153  -16.0346 N   0  0  0  0  0  0  0  0  0  0  0  0
   20.9425   -7.6507  -15.1866 C   0  0  0  0  0  0  0  0  0  0  0  0
   20.9169   -7.1913  -16.3694 O   0  0  0  0  0  0  0  0  0  0  0  0
   20.8945   -6.7529  -14.1573 O   0  0  0  0  0  0  0  0  0  0  0  0
  2  1  1  6
  3  2  1  0
  4  3  1  0
  5  2  1  0
  5  6  2  0
  8  7  1  6
  8 10  1  0
  9  8  1  0
 10 11  1  1
 10 12  1  0
 11  5  1  0
 12 19  1  0
 13 12  2  0
 15 14  1  0
 16 17  1  1
 16 15  1  0
 18 16  1  0
 18 19  1  6
 20 22  1  0
 20 18  1  0
 21 20  2  0
M  END
$$$$
