AHH.pdb
     RDKit          3D

 26 27  0  0  1  0  0  0  0  0999 V2000
   19.7252  -12.9005  -18.4876 C   0  0  0  0  0  0  0  0  0  0  0  0
   20.6416  -11.7522  -18.1203 C   0  0  2  0  0  0  0  0  0  0  0  0
   21.7467  -12.2894  -17.3933 N   0  0  0  0  0  0  0  0  0  0  0  0
   19.8498  -10.7557  -17.3781 C   0  0  0  0  0  0  0  0  0  0  0  0
   18.8589  -11.1770  -16.7263 O   0  0  0  0  0  0  0  0  0  0  0  0
   20.1450   -9.3798  -17.3646 N   0  0  0  0  0  0  0  0  0  0  0  0
   19.4006   -8.3963  -16.5889 C   0  0  1  0  0  0  0  0  0  0  0  0
   19.4030   -8.7121  -15.1363 C   0  0  0  0  0  0  0  0  0  0  0  0
   20.7775   -8.9477  -14.6375 C   0  0  0  0  0  0  0  0  0  0  0  0
   21.9285   -9.0123  -15.3922 C   0  0  0  0  0  0  0  0  0  0  0  0
   22.9640   -9.2369  -14.6014 N   0  0  0  0  0  0  0  0  0  0  0  0
   22.5107   -9.3207  -13.3418 C   0  0  0  0  0  0  0  0  0  0  0  0
   21.1812   -9.1445  -13.3672 N   0  0  0  0  0  0  0  0  0  0  0  0
   19.8650   -7.0259  -16.8750 C   0  0  0  0  0  0  0  0  0  0  0  0
   20.7634   -6.7984  -17.7025 O   0  0  0  0  0  0  0  0  0  0  0  0
   19.3084   -5.8798  -16.2171 N   0  0  0  0  0  0  0  0  0  0  0  0
   19.6541   -4.5272  -16.6596 C   0  0  1  0  0  0  0  0  0  0  0  0
   19.6192   -4.4226  -18.1486 C   0  0  0  0  0  0  0  0  0  0  0  0
   20.9797   -4.5174  -18.6988 C   0  0  0  0  0  0  0  0  0  0  0  0
   22.0985   -4.9164  -17.9606 C   0  0  0  0  0  0  0  0  0  0  0  0
   23.1783   -4.8949  -18.7563 N   0  0  0  0  0  0  0  0  0  0  0  0
   22.7688   -4.4946  -19.9696 C   0  0  0  0  0  0  0  0  0  0  0  0
   21.4336   -4.2668  -19.9297 N   0  0  0  0  0  0  0  0  0  0  0  0
   18.8163   -3.5235  -15.9663 C   0  0  0  0  0  0  0  0  0  0  0  0
   19.1913   -2.2214  -15.7777 O   0  0  0  0  0  0  0  0  0  0  0  0
   17.6742   -3.8638  -15.5070 O   0  0  0  0  0  0  0  0  0  0  0  0
  2  1  1  1
  2  4  1  0
  3  2  1  0
  4  5  2  0
  6  4  1  0
  6  7  1  0
  7 14  1  0
  7  8  1  1
  9  8  1  0
 10  9  2  0
 11 12  1  0
 11 10  1  0
 12 13  2  0
 13  9  1  0
 14 15  2  0
 16 17  1  0
 16 14  1  0
 17 24  1  0
 18 19  1  0
 17 18  1  6
 19 23  1  0
 20 21  1  0
 20 19  2  0
 21 22  1  0
 22 23  2  0
 24 26  2  0
 24 25  1  0
M  END
$$$$
