AHH.pdb
     RDKit          3D

 26 27  0  0  1  0  0  0  0  0999 V2000
   18.4136  -34.0284   -8.9351 C   0  0  0  0  0  0  0  0  0  0  0  0
   18.9363  -32.6135   -9.0695 C   0  0  2  0  0  0  0  0  0  0  0  0
   18.3005  -32.0176  -10.2005 N   0  0  0  0  0  0  0  0  0  0  0  0
   20.4056  -32.6763   -9.1587 C   0  0  0  0  0  0  0  0  0  0  0  0
   20.9288  -32.3788  -10.2643 O   0  0  0  0  0  0  0  0  0  0  0  0
   21.2359  -33.0466   -8.0844 N   0  0  0  0  0  0  0  0  0  0  0  0
   22.6489  -32.7027   -7.9932 C   0  0  1  0  0  0  0  0  0  0  0  0
   22.8831  -31.2467   -8.1802 C   0  0  0  0  0  0  0  0  0  0  0  0
   22.7414  -30.8556   -9.6017 C   0  0  0  0  0  0  0  0  0  0  0  0
   22.4112  -31.6806  -10.6547 C   0  0  0  0  0  0  0  0  0  0  0  0
   22.3795  -30.9779  -11.7742 N   0  0  0  0  0  0  0  0  0  0  0  0
   22.6832  -29.7069  -11.4723 C   0  0  0  0  0  0  0  0  0  0  0  0
   22.9027  -29.6358  -10.1508 N   0  0  0  0  0  0  0  0  0  0  0  0
   23.2465  -33.2209   -6.7482 C   0  0  0  0  0  0  0  0  0  0  0  0
   23.1484  -32.6098   -5.6710 O   0  0  0  0  0  0  0  0  0  0  0  0
   23.9734  -34.4563   -6.7086 N   0  0  0  0  0  0  0  0  0  0  0  0
   23.7674  -35.4058   -5.6128 C   0  0  1  0  0  0  0  0  0  0  0  0
   22.3129  -35.6364   -5.3667 C   0  0  0  0  0  0  0  0  0  0  0  0
   21.9435  -35.1733   -4.0207 C   0  0  0  0  0  0  0  0  0  0  0  0
   22.6077  -34.1532   -3.3321 C   0  0  0  0  0  0  0  0  0  0  0  0
   22.0226  -33.9784   -2.1378 N   0  0  0  0  0  0  0  0  0  0  0  0
   21.0127  -34.8581   -2.0583 C   0  0  0  0  0  0  0  0  0  0  0  0
   20.9687  -35.5810   -3.2036 N   0  0  0  0  0  0  0  0  0  0  0  0
   24.5418  -36.6451   -5.8464 C   0  0  0  0  0  0  0  0  0  0  0  0
   25.1175  -37.3804   -4.8466 O   0  0  0  0  0  0  0  0  0  0  0  0
   24.6984  -37.0760   -7.0384 O   0  0  0  0  0  0  0  0  0  0  0  0
  2  1  1  6
  2  4  1  0
  3  2  1  0
  4  5  2  0
  6  4  1  0
  6  7  1  0
  7 14  1  0
  7  8  1  1
  9  8  1  0
 10  9  2  0
 11 12  1  0
 11 10  1  0
 12 13  2  0
 13  9  1  0
 14 15  2  0
 16 17  1  0
 16 14  1  0
 17 24  1  0
 18 19  1  0
 17 18  1  6
 19 23  1  0
 20 21  1  0
 20 19  2  0
 21 22  1  0
 22 23  2  0
 24 26  2  0
 24 25  1  0
M  END
$$$$
