AHH.pdb
     RDKit          3D

 26 27  0  0  1  0  0  0  0  0999 V2000
   14.8553  -15.2507  -12.8513 C   0  0  0  0  0  0  0  0  0  0  0  0
   15.8965  -15.5029  -13.9217 C   0  0  2  0  0  0  0  0  0  0  0  0
   16.6166  -16.6823  -13.5627 N   0  0  0  0  0  0  0  0  0  0  0  0
   16.7288  -14.2932  -14.0428 C   0  0  0  0  0  0  0  0  0  0  0  0
   17.7189  -14.1958  -13.2717 O   0  0  0  0  0  0  0  0  0  0  0  0
   16.4726  -13.2607  -14.9641 N   0  0  0  0  0  0  0  0  0  0  0  0
   17.2474  -12.0291  -15.0408 C   0  0  1  0  0  0  0  0  0  0  0  0
   17.3415  -11.5135  -16.4319 C   0  0  0  0  0  0  0  0  0  0  0  0
   18.2815  -10.3726  -16.5222 C   0  0  0  0  0  0  0  0  0  0  0  0
   19.6120  -10.3703  -16.1638 C   0  0  0  0  0  0  0  0  0  0  0  0
   20.1278   -9.1733  -16.3854 N   0  0  0  0  0  0  0  0  0  0  0  0
   19.1579   -8.3916  -16.8827 C   0  0  0  0  0  0  0  0  0  0  0  0
   18.0368   -9.1236  -16.9646 N   0  0  0  0  0  0  0  0  0  0  0  0
   16.7428  -11.0192  -14.0916 C   0  0  0  0  0  0  0  0  0  0  0  0
   15.8383  -11.2776  -13.2800 O   0  0  0  0  0  0  0  0  0  0  0  0
   17.2650   -9.6843  -14.0501 N   0  0  0  0  0  0  0  0  0  0  0  0
   16.7381   -8.7087  -13.0933 C   0  0  1  0  0  0  0  0  0  0  0  0
   16.8659   -9.2065  -11.6915 C   0  0  0  0  0  0  0  0  0  0  0  0
   15.5358   -9.4477  -11.1124 C   0  0  0  0  0  0  0  0  0  0  0  0
   14.3355   -9.2972  -11.8142 C   0  0  0  0  0  0  0  0  0  0  0  0
   13.3119   -9.5938  -10.9995 N   0  0  0  0  0  0  0  0  0  0  0  0
   13.8355   -9.9252   -9.8095 C   0  0  0  0  0  0  0  0  0  0  0  0
   15.1856   -9.8351   -9.8830 N   0  0  0  0  0  0  0  0  0  0  0  0
   17.3480   -7.3792  -13.3174 C   0  0  0  0  0  0  0  0  0  0  0  0
   16.6866   -6.1977  -13.1220 O   0  0  0  0  0  0  0  0  0  0  0  0
   18.5586   -7.2996  -13.7166 O   0  0  0  0  0  0  0  0  0  0  0  0
  2  1  1  1
  2  4  1  0
  3  2  1  0
  4  5  2  0
  6  4  1  0
  6  7  1  0
  7 14  1  0
  7  8  1  6
  9  8  1  0
 10  9  2  0
 11 12  1  0
 11 10  1  0
 12 13  2  0
 13  9  1  0
 14 15  2  0
 16 17  1  0
 16 14  1  0
 17 24  1  0
 18 19  1  0
 17 18  1  1
 19 23  1  0
 20 21  1  0
 20 19  2  0
 21 22  1  0
 22 23  2  0
 24 26  2  0
 24 25  1  0
M  END
$$$$
