AHH.pdb
     RDKit          3D

 26 27  0  0  1  0  0  0  0  0999 V2000
   20.6458  -12.5655    5.9646 C   0  0  0  0  0  0  0  0  0  0  0  0
   19.3136  -12.7586    5.2708 C   0  0  2  0  0  0  0  0  0  0  0  0
   18.5180  -11.5997    5.5202 N   0  0  0  0  0  0  0  0  0  0  0  0
   18.7245  -14.0188    5.7564 C   0  0  0  0  0  0  0  0  0  0  0  0
   17.8981  -13.9412    6.7027 O   0  0  0  0  0  0  0  0  0  0  0  0
   19.0376  -15.2820    5.2209 N   0  0  0  0  0  0  0  0  0  0  0  0
   18.4663  -16.5331    5.7021 C   0  0  1  0  0  0  0  0  0  0  0  0
   17.9778  -17.3892    4.5892 C   0  0  0  0  0  0  0  0  0  0  0  0
   16.5981  -17.0243    4.1934 C   0  0  0  0  0  0  0  0  0  0  0  0
   15.8148  -16.0365    4.7495 C   0  0  0  0  0  0  0  0  0  0  0  0
   14.6436  -16.0033    4.1371 N   0  0  0  0  0  0  0  0  0  0  0  0
   14.6464  -16.9524    3.1894 C   0  0  0  0  0  0  0  0  0  0  0  0
   15.8359  -17.5713    3.2262 N   0  0  0  0  0  0  0  0  0  0  0  0
   19.4023  -17.2400    6.5963 C   0  0  0  0  0  0  0  0  0  0  0  0
   20.5549  -17.5340    6.2376 O   0  0  0  0  0  0  0  0  0  0  0  0
   19.0380  -17.6278    7.9279 N   0  0  0  0  0  0  0  0  0  0  0  0
   20.0088  -18.2900    8.8018 C   0  0  1  0  0  0  0  0  0  0  0  0
   20.0745  -17.6232   10.1361 C   0  0  0  0  0  0  0  0  0  0  0  0
   21.0284  -16.5045   10.1010 C   0  0  0  0  0  0  0  0  0  0  0  0
   22.1575  -16.4617    9.2768 C   0  0  0  0  0  0  0  0  0  0  0  0
   22.8107  -15.3094    9.4887 N   0  0  0  0  0  0  0  0  0  0  0  0
   22.1246  -14.6302   10.4205 C   0  0  0  0  0  0  0  0  0  0  0  0
   21.0437  -15.3597   10.7890 N   0  0  0  0  0  0  0  0  0  0  0  0
   19.7412  -19.7440    8.8685 C   0  0  0  0  0  0  0  0  0  0  0  0
   20.4678  -20.6154    9.6328 O   0  0  0  0  0  0  0  0  0  0  0  0
   18.7845  -20.2415    8.1840 O   0  0  0  0  0  0  0  0  0  0  0  0
  2  1  1  1
  2  4  1  0
  3  2  1  0
  4  5  2  0
  6  4  1  0
  6  7  1  0
  7 14  1  0
  7  8  1  6
  9  8  1  0
 10  9  2  0
 11 12  1  0
 11 10  1  0
 12 13  2  0
 13  9  1  0
 14 15  2  0
 16 17  1  0
 16 14  1  0
 17 24  1  0
 18 19  1  0
 17 18  1  1
 19 23  1  0
 20 21  1  0
 20 19  2  0
 21 22  1  0
 22 23  2  0
 24 26  2  0
 24 25  1  0
M  END
$$$$
