AHH.pdb
     RDKit          3D

 26 27  0  0  1  0  0  0  0  0999 V2000
   23.9425  -15.0119  -19.5698 C   0  0  0  0  0  0  0  0  0  0  0  0
   23.5471  -15.2197  -18.1228 C   0  0  2  0  0  0  0  0  0  0  0  0
   24.2572  -14.2652  -17.3335 N   0  0  0  0  0  0  0  0  0  0  0  0
   23.8197  -16.6246  -17.7724 C   0  0  0  0  0  0  0  0  0  0  0  0
   23.2786  -17.5111  -18.4835 O   0  0  0  0  0  0  0  0  0  0  0  0
   24.6423  -17.0138  -16.6989 N   0  0  0  0  0  0  0  0  0  0  0  0
   24.8976  -18.4006  -16.3318 C   0  0  1  0  0  0  0  0  0  0  0  0
   26.3464  -18.6694  -16.1357 C   0  0  0  0  0  0  0  0  0  0  0  0
   27.0916  -18.5678  -17.4116 C   0  0  0  0  0  0  0  0  0  0  0  0
   26.5715  -18.2483  -18.6469 C   0  0  0  0  0  0  0  0  0  0  0  0
   27.5380  -18.2549  -19.5490 N   0  0  0  0  0  0  0  0  0  0  0  0
   28.6821  -18.5732  -18.9257 C   0  0  0  0  0  0  0  0  0  0  0  0
   28.4074  -18.7629  -17.6265 N   0  0  0  0  0  0  0  0  0  0  0  0
   24.0806  -18.8067  -15.1729 C   0  0  0  0  0  0  0  0  0  0  0  0
   23.8854  -18.0457  -14.2104 O   0  0  0  0  0  0  0  0  0  0  0  0
   23.4657  -20.0995  -15.0895 N   0  0  0  0  0  0  0  0  0  0  0  0
   22.5809  -20.4317  -13.9708 C   0  0  1  0  0  0  0  0  0  0  0  0
   22.7690  -19.4808  -12.8352 C   0  0  0  0  0  0  0  0  0  0  0  0
   21.8517  -19.8126  -11.7345 C   0  0  0  0  0  0  0  0  0  0  0  0
   20.9675  -20.8961  -11.7497 C   0  0  0  0  0  0  0  0  0  0  0  0
   20.2787  -20.9150  -10.5988 N   0  0  0  0  0  0  0  0  0  0  0  0
   20.7052  -19.8764   -9.8643 C   0  0  0  0  0  0  0  0  0  0  0  0
   21.6599  -19.2103  -10.5579 N   0  0  0  0  0  0  0  0  0  0  0  0
   21.1798  -20.5472  -14.4328 C   0  0  0  0  0  0  0  0  0  0  0  0
   20.2896  -21.4600  -13.9368 O   0  0  0  0  0  0  0  0  0  0  0  0
   20.7498  -19.7642  -15.3456 O   0  0  0  0  0  0  0  0  0  0  0  0
  2  1  1  6
  2  4  1  0
  3  2  1  0
  4  5  2  0
  6  4  1  0
  6  7  1  0
  7 14  1  0
  7  8  1  1
  9  8  1  0
 10  9  2  0
 11 12  1  0
 11 10  1  0
 12 13  2  0
 13  9  1  0
 14 15  2  0
 16 17  1  0
 16 14  1  0
 17 24  1  0
 18 19  1  0
 17 18  1  1
 19 23  1  0
 20 21  1  0
 20 19  2  0
 21 22  1  0
 22 23  2  0
 24 26  2  0
 24 25  1  0
M  END
$$$$
