AHH.pdb
     RDKit          3D

 26 27  0  0  1  0  0  0  0  0999 V2000
   34.5660  -35.4811   -5.1471 C   0  0  0  0  0  0  0  0  0  0  0  0
   33.5063  -36.3284   -5.8196 C   0  0  2  0  0  0  0  0  0  0  0  0
   33.8778  -36.4886   -7.1888 N   0  0  0  0  0  0  0  0  0  0  0  0
   32.2016  -35.6756   -5.6141 C   0  0  0  0  0  0  0  0  0  0  0  0
   31.9142  -35.3192   -4.4416 O   0  0  0  0  0  0  0  0  0  0  0  0
   31.2787  -35.4366   -6.6493 N   0  0  0  0  0  0  0  0  0  0  0  0
   29.9881  -34.7890   -6.4542 C   0  0  1  0  0  0  0  0  0  0  0  0
   29.3703  -34.3747   -7.7413 C   0  0  0  0  0  0  0  0  0  0  0  0
   28.0778  -33.6854   -7.5223 C   0  0  0  0  0  0  0  0  0  0  0  0
   27.4290  -33.5130   -6.3190 C   0  0  0  0  0  0  0  0  0  0  0  0
   26.3018  -32.8505   -6.5151 N   0  0  0  0  0  0  0  0  0  0  0  0
   26.2013  -32.5861   -7.8262 C   0  0  0  0  0  0  0  0  0  0  0  0
   27.2825  -33.0950   -8.4357 N   0  0  0  0  0  0  0  0  0  0  0  0
   29.0899  -35.6221   -5.6329 C   0  0  0  0  0  0  0  0  0  0  0  0
   28.7151  -36.7460   -6.0068 O   0  0  0  0  0  0  0  0  0  0  0  0
   28.5982  -35.1849   -4.3588 N   0  0  0  0  0  0  0  0  0  0  0  0
   27.6736  -36.0219   -3.5911 C   0  0  1  0  0  0  0  0  0  0  0  0
   28.4032  -36.8400   -2.5775 C   0  0  0  0  0  0  0  0  0  0  0  0
   27.4575  -37.6652   -1.8112 C   0  0  0  0  0  0  0  0  0  0  0  0
   26.7504  -38.7479   -2.3440 C   0  0  0  0  0  0  0  0  0  0  0  0
   25.9786  -39.2811   -1.3852 N   0  0  0  0  0  0  0  0  0  0  0  0
   26.1813  -38.5650   -0.2689 C   0  0  0  0  0  0  0  0  0  0  0  0
   27.0797  -37.5853   -0.5325 N   0  0  0  0  0  0  0  0  0  0  0  0
   26.5773  -35.2032   -3.0272 C   0  0  0  0  0  0  0  0  0  0  0  0
   25.3496  -35.7054   -2.6925 O   0  0  0  0  0  0  0  0  0  0  0  0
   26.7589  -33.9541   -2.8318 O   0  0  0  0  0  0  0  0  0  0  0  0
  2  1  1  1
  2  4  1  0
  3  2  1  0
  4  5  2  0
  6  4  1  0
  6  7  1  0
  7 14  1  0
  7  8  1  6
  9  8  1  0
 10  9  2  0
 11 12  1  0
 11 10  1  0
 12 13  2  0
 13  9  1  0
 14 15  2  0
 16 17  1  0
 16 14  1  0
 17 24  1  0
 18 19  1  0
 17 18  1  1
 19 23  1  0
 20 21  1  0
 20 19  2  0
 21 22  1  0
 22 23  2  0
 24 26  2  0
 24 25  1  0
M  END
$$$$
