AHH.pdb
     RDKit          3D

 26 27  0  0  1  0  0  0  0  0999 V2000
   27.0321  -34.7071    3.5053 C   0  0  0  0  0  0  0  0  0  0  0  0
   25.9829  -33.6561    3.2086 C   0  0  2  0  0  0  0  0  0  0  0  0
   26.3367  -33.0189    1.9809 N   0  0  0  0  0  0  0  0  0  0  0  0
   25.9058  -32.7485    4.3666 C   0  0  0  0  0  0  0  0  0  0  0  0
   26.8802  -31.9750    4.5582 O   0  0  0  0  0  0  0  0  0  0  0  0
   24.8128  -32.7071    5.2522 N   0  0  0  0  0  0  0  0  0  0  0  0
   24.7527  -31.8511    6.4298 C   0  0  1  0  0  0  0  0  0  0  0  0
   23.3534  -31.5556    6.8353 C   0  0  0  0  0  0  0  0  0  0  0  0
   22.7025  -30.6222    5.8874 C   0  0  0  0  0  0  0  0  0  0  0  0
   23.2615  -29.4950    5.3256 C   0  0  0  0  0  0  0  0  0  0  0  0
   22.3802  -28.9140    4.5295 N   0  0  0  0  0  0  0  0  0  0  0  0
   21.2537  -29.6414    4.5603 C   0  0  0  0  0  0  0  0  0  0  0  0
   21.4529  -30.6791    5.3868 N   0  0  0  0  0  0  0  0  0  0  0  0
   25.5619  -32.4014    7.5334 C   0  0  0  0  0  0  0  0  0  0  0  0
   25.7202  -33.6245    7.6825 O   0  0  0  0  0  0  0  0  0  0  0  0
   26.2111  -31.5593    8.4956 N   0  0  0  0  0  0  0  0  0  0  0  0
   27.0546  -32.1395    9.5428 C   0  0  1  0  0  0  0  0  0  0  0  0
   28.1466  -32.9710    8.9553 C   0  0  0  0  0  0  0  0  0  0  0  0
   27.9295  -34.3920    9.2659 C   0  0  0  0  0  0  0  0  0  0  0  0
   26.6722  -34.9637    9.4863 C   0  0  0  0  0  0  0  0  0  0  0  0
   26.8250  -36.2713    9.7434 N   0  0  0  0  0  0  0  0  0  0  0  0
   28.1395  -36.5349    9.6905 C   0  0  0  0  0  0  0  0  0  0  0  0
   28.8057  -35.3911    9.4004 N   0  0  0  0  0  0  0  0  0  0  0  0
   27.5311  -31.0879   10.4686 C   0  0  0  0  0  0  0  0  0  0  0  0
   27.2689  -29.7554   10.3035 O   0  0  0  0  0  0  0  0  0  0  0  0
   28.2293  -31.4133   11.4874 O   0  0  0  0  0  0  0  0  0  0  0  0
  2  1  1  1
  2  4  1  0
  3  2  1  0
  4  5  2  0
  6  4  1  0
  6  7  1  0
  7 14  1  0
  7  8  1  1
  9  8  1  0
 10  9  2  0
 11 12  1  0
 11 10  1  0
 12 13  2  0
 13  9  1  0
 14 15  2  0
 16 17  1  0
 16 14  1  0
 17 24  1  0
 18 19  1  0
 17 18  1  6
 19 23  1  0
 20 21  1  0
 20 19  2  0
 21 22  1  0
 22 23  2  0
 24 26  2  0
 24 25  1  0
M  END
$$$$
