AHH.pdb
     RDKit          3D

 26 27  0  0  1  0  0  0  0  0999 V2000
   28.3078  -25.3934  -17.2578 C   0  0  0  0  0  0  0  0  0  0  0  0
   29.3719  -24.3232  -17.1329 C   0  0  2  0  0  0  0  0  0  0  0  0
   30.4797  -24.8872  -16.4306 N   0  0  0  0  0  0  0  0  0  0  0  0
   28.7661  -23.1517  -16.4762 C   0  0  0  0  0  0  0  0  0  0  0  0
   28.4811  -23.2593  -15.2548 O   0  0  0  0  0  0  0  0  0  0  0  0
   28.4963  -21.9401  -17.1393 N   0  0  0  0  0  0  0  0  0  0  0  0
   27.9655  -20.7537  -16.4807 C   0  0  1  0  0  0  0  0  0  0  0  0
   28.5196  -19.4999  -17.0559 C   0  0  0  0  0  0  0  0  0  0  0  0
   27.9886  -18.3057  -16.3591 C   0  0  0  0  0  0  0  0  0  0  0  0
   27.7475  -18.1786  -15.0084 C   0  0  0  0  0  0  0  0  0  0  0  0
   27.2753  -16.9700  -14.7551 N   0  0  0  0  0  0  0  0  0  0  0  0
   27.2030  -16.3034  -15.9167 C   0  0  0  0  0  0  0  0  0  0  0  0
   27.6373  -17.1181  -16.8898 N   0  0  0  0  0  0  0  0  0  0  0  0
   26.4907  -20.7679  -16.4593 C   0  0  0  0  0  0  0  0  0  0  0  0
   25.8235  -21.0194  -17.4766 O   0  0  0  0  0  0  0  0  0  0  0  0
   25.7433  -20.4933  -15.2667 N   0  0  0  0  0  0  0  0  0  0  0  0
   24.2827  -20.3963  -15.3100 C   0  0  1  0  0  0  0  0  0  0  0  0
   23.7078  -20.3134  -13.9346 C   0  0  0  0  0  0  0  0  0  0  0  0
   22.2404  -20.2401  -13.9984 C   0  0  0  0  0  0  0  0  0  0  0  0
   21.4103  -21.3368  -14.2519 C   0  0  0  0  0  0  0  0  0  0  0  0
   20.1322  -20.9298  -14.2419 N   0  0  0  0  0  0  0  0  0  0  0  0
   20.1375  -19.6121  -13.9900 C   0  0  0  0  0  0  0  0  0  0  0  0
   21.4194  -19.1980  -13.8430 N   0  0  0  0  0  0  0  0  0  0  0  0
   23.8610  -19.2961  -16.2055 C   0  0  0  0  0  0  0  0  0  0  0  0
   22.7702  -19.3627  -17.0284 O   0  0  0  0  0  0  0  0  0  0  0  0
   24.5351  -18.2116  -16.2331 O   0  0  0  0  0  0  0  0  0  0  0  0
  2  1  1  1
  2  4  1  0
  3  2  1  0
  4  5  2  0
  6  4  1  0
  6  7  1  0
  7 14  1  0
  7  8  1  6
  9  8  1  0
 10  9  2  0
 11 12  1  0
 11 10  1  0
 12 13  2  0
 13  9  1  0
 14 15  2  0
 16 17  1  0
 16 14  1  0
 17 24  1  0
 18 19  1  0
 17 18  1  1
 19 23  1  0
 20 21  1  0
 20 19  2  0
 21 22  1  0
 22 23  2  0
 24 26  2  0
 24 25  1  0
M  END
$$$$
