AHH.pdb
     RDKit          3D

 26 27  0  0  1  0  0  0  0  0999 V2000
   25.8395   -8.7060  -20.7217 C   0  0  0  0  0  0  0  0  0  0  0  0
   25.3188   -7.3011  -20.5012 C   0  0  2  0  0  0  0  0  0  0  0  0
   26.3946   -6.3931  -20.7393 N   0  0  0  0  0  0  0  0  0  0  0  0
   24.7521   -7.2324  -19.1429 C   0  0  0  0  0  0  0  0  0  0  0  0
   25.1508   -8.0863  -18.3086 O   0  0  0  0  0  0  0  0  0  0  0  0
   23.8029   -6.2735  -18.7428 N   0  0  0  0  0  0  0  0  0  0  0  0
   23.3394   -6.1119  -17.3708 C   0  0  1  0  0  0  0  0  0  0  0  0
   23.2861   -4.6833  -16.9634 C   0  0  0  0  0  0  0  0  0  0  0  0
   24.6368   -4.0758  -16.9480 C   0  0  0  0  0  0  0  0  0  0  0  0
   25.8296   -4.7112  -17.2164 C   0  0  0  0  0  0  0  0  0  0  0  0
   26.8253   -3.8485  -17.1050 N   0  0  0  0  0  0  0  0  0  0  0  0
   26.3049   -2.6590  -16.7684 C   0  0  0  0  0  0  0  0  0  0  0  0
   24.9743   -2.8005  -16.6736 N   0  0  0  0  0  0  0  0  0  0  0  0
   22.0617   -6.8153  -17.1511 C   0  0  0  0  0  0  0  0  0  0  0  0
   21.1423   -6.7792  -17.9859 O   0  0  0  0  0  0  0  0  0  0  0  0
   21.8068   -7.5795  -15.9648 N   0  0  0  0  0  0  0  0  0  0  0  0
   20.4943   -8.1891  -15.7403 C   0  0  1  0  0  0  0  0  0  0  0  0
   20.6297   -9.5839  -15.2251 C   0  0  0  0  0  0  0  0  0  0  0  0
   19.3025  -10.1853  -15.0259 C   0  0  0  0  0  0  0  0  0  0  0  0
   18.2163   -9.5169  -14.4521 C   0  0  0  0  0  0  0  0  0  0  0  0
   17.1614  -10.3449  -14.4176 N   0  0  0  0  0  0  0  0  0  0  0  0
   17.5548  -11.5108  -14.9524 C   0  0  0  0  0  0  0  0  0  0  0  0
   18.8551  -11.4090  -15.3201 N   0  0  0  0  0  0  0  0  0  0  0  0
   19.6528   -7.3142  -14.8938 C   0  0  0  0  0  0  0  0  0  0  0  0
   20.0439   -6.8341  -13.6739 O   0  0  0  0  0  0  0  0  0  0  0  0
   18.4908   -6.9724  -15.2991 O   0  0  0  0  0  0  0  0  0  0  0  0
  2  1  1  1
  2  4  1  0
  3  2  1  0
  4  5  2  0
  6  4  1  0
  6  7  1  0
  7 14  1  0
  7  8  1  6
  9  8  1  0
 10  9  2  0
 11 12  1  0
 11 10  1  0
 12 13  2  0
 13  9  1  0
 14 15  2  0
 16 17  1  0
 16 14  1  0
 17 24  1  0
 18 19  1  0
 17 18  1  1
 19 23  1  0
 20 21  1  0
 20 19  2  0
 21 22  1  0
 22 23  2  0
 24 26  2  0
 24 25  1  0
M  END
$$$$
