AHH.pdb
     RDKit          3D

 26 27  0  0  1  0  0  0  0  0999 V2000
   22.2558  -11.8735  -21.7521 C   0  0  0  0  0  0  0  0  0  0  0  0
   22.6631  -11.0795  -20.5287 C   0  0  2  0  0  0  0  0  0  0  0  0
   23.7143  -11.7910  -19.8750 N   0  0  0  0  0  0  0  0  0  0  0  0
   21.4627  -10.8687  -19.7008 C   0  0  0  0  0  0  0  0  0  0  0  0
   20.5372  -10.1732  -20.1948 O   0  0  0  0  0  0  0  0  0  0  0  0
   21.3060  -11.3996  -18.4069 N   0  0  0  0  0  0  0  0  0  0  0  0
   20.1856  -11.0857  -17.5298 C   0  0  1  0  0  0  0  0  0  0  0  0
   19.7281  -12.2727  -16.7606 C   0  0  0  0  0  0  0  0  0  0  0  0
   18.5470  -11.9527  -15.9263 C   0  0  0  0  0  0  0  0  0  0  0  0
   17.9143  -10.7327  -15.8266 C   0  0  0  0  0  0  0  0  0  0  0  0
   16.8984  -10.8287  -14.9859 N   0  0  0  0  0  0  0  0  0  0  0  0
   16.8550  -12.0905  -14.5334 C   0  0  0  0  0  0  0  0  0  0  0  0
   17.8585  -12.7713  -15.1070 N   0  0  0  0  0  0  0  0  0  0  0  0
   20.4897   -9.9294  -16.6660 C   0  0  0  0  0  0  0  0  0  0  0  0
   21.6304   -9.7304  -16.2158 O   0  0  0  0  0  0  0  0  0  0  0  0
   19.4897   -8.9703  -16.2967 N   0  0  0  0  0  0  0  0  0  0  0  0
   19.8579   -7.7550  -15.5672 C   0  0  1  0  0  0  0  0  0  0  0  0
   20.9810   -7.0406  -16.2438 C   0  0  0  0  0  0  0  0  0  0  0  0
   21.3344   -5.8234  -15.4980 C   0  0  0  0  0  0  0  0  0  0  0  0
   22.2142   -5.7969  -14.4112 C   0  0  0  0  0  0  0  0  0  0  0  0
   22.3172   -4.5371  -13.9620 N   0  0  0  0  0  0  0  0  0  0  0  0
   21.5285   -3.7749  -14.7348 C   0  0  0  0  0  0  0  0  0  0  0  0
   20.9342   -4.5602  -15.6656 N   0  0  0  0  0  0  0  0  0  0  0  0
   18.6660   -6.9113  -15.3275 C   0  0  0  0  0  0  0  0  0  0  0  0
   18.5414   -6.0571  -14.2662 O   0  0  0  0  0  0  0  0  0  0  0  0
   17.6823   -6.9633  -16.1405 O   0  0  0  0  0  0  0  0  0  0  0  0
  2  1  1  6
  2  4  1  0
  3  2  1  0
  4  5  2  0
  6  4  1  0
  6  7  1  0
  7 14  1  0
  7  8  1  1
  9  8  1  0
 10  9  2  0
 11 12  1  0
 11 10  1  0
 12 13  2  0
 13  9  1  0
 14 15  2  0
 16 17  1  0
 16 14  1  0
 17 24  1  0
 18 19  1  0
 17 18  1  6
 19 23  1  0
 20 21  1  0
 20 19  2  0
 21 22  1  0
 22 23  2  0
 24 26  2  0
 24 25  1  0
M  END
$$$$
