AHH.pdb
     RDKit          3D

 26 27  0  0  1  0  0  0  0  0999 V2000
   21.1597  -12.0052  -20.0944 C   0  0  0  0  0  0  0  0  0  0  0  0
   21.7363  -10.6507  -19.7392 C   0  0  2  0  0  0  0  0  0  0  0  0
   22.6058  -10.8247  -18.6202 N   0  0  0  0  0  0  0  0  0  0  0  0
   20.6147   -9.7252  -19.5017 C   0  0  0  0  0  0  0  0  0  0  0  0
   19.8194   -9.5269  -20.4570 O   0  0  0  0  0  0  0  0  0  0  0  0
   20.3955   -9.0649  -18.2784 N   0  0  0  0  0  0  0  0  0  0  0  0
   19.2688   -8.1765  -18.0248 C   0  0  1  0  0  0  0  0  0  0  0  0
   18.3671   -8.7050  -16.9678 C   0  0  0  0  0  0  0  0  0  0  0  0
   17.3962   -9.6761  -17.5228 C   0  0  0  0  0  0  0  0  0  0  0  0
   17.2792  -10.0638  -18.8398 C   0  0  0  0  0  0  0  0  0  0  0  0
   16.3013  -10.9458  -18.9562 N   0  0  0  0  0  0  0  0  0  0  0  0
   15.7758  -11.1424  -17.7379 C   0  0  0  0  0  0  0  0  0  0  0  0
   16.4435  -10.3690  -16.8688 N   0  0  0  0  0  0  0  0  0  0  0  0
   19.7234   -6.8004  -17.7504 C   0  0  0  0  0  0  0  0  0  0  0  0
   20.6827   -6.5657  -16.9965 O   0  0  0  0  0  0  0  0  0  0  0  0
   19.0869   -5.6566  -18.3359 N   0  0  0  0  0  0  0  0  0  0  0  0
   19.6023   -4.3089  -18.0854 C   0  0  1  0  0  0  0  0  0  0  0  0
   19.1773   -3.3620  -19.1588 C   0  0  0  0  0  0  0  0  0  0  0  0
   19.7247   -2.0213  -18.9026 C   0  0  0  0  0  0  0  0  0  0  0  0
   21.0569   -1.6613  -19.1297 C   0  0  0  0  0  0  0  0  0  0  0  0
   21.2254   -0.3734  -18.7945 N   0  0  0  0  0  0  0  0  0  0  0  0
   20.0393    0.0830  -18.3646 C   0  0  0  0  0  0  0  0  0  0  0  0
   19.1316   -0.9209  -18.4321 N   0  0  0  0  0  0  0  0  0  0  0  0
   19.2524   -3.8643  -16.7180 C   0  0  0  0  0  0  0  0  0  0  0  0
   18.5631   -4.6349  -15.8222 O   0  0  0  0  0  0  0  0  0  0  0  0
   19.6001   -2.6999  -16.3248 O   0  0  0  0  0  0  0  0  0  0  0  0
  2  1  1  1
  2  4  1  0
  3  2  1  0
  4  5  2  0
  6  4  1  0
  6  7  1  0
  7 14  1  0
  7  8  1  1
  9  8  1  0
 10  9  2  0
 11 12  1  0
 11 10  1  0
 12 13  2  0
 13  9  1  0
 14 15  2  0
 16 17  1  0
 16 14  1  0
 17 24  1  0
 18 19  1  0
 17 18  1  6
 19 23  1  0
 20 21  1  0
 20 19  2  0
 21 22  1  0
 22 23  2  0
 24 26  2  0
 24 25  1  0
M  END
$$$$
