NMC.pdb
     RDKit          3D

 23 22  0  0  1  0  0  0  0  0999 V2000
    9.7198  -17.9793   18.7249 N   0  0  0  0  0  0  0  0  0  0  0  0
    9.9142  -16.5807   18.7012 C   0  0  0  0  0  0  0  0  0  0  0  0
   10.0433  -16.0524   17.5457 O   0  0  0  0  0  0  0  0  0  0  0  0
    9.9699  -15.7460   19.9291 C   0  0  0  0  0  0  0  0  0  0  0  0
    9.8402  -16.6108   21.1548 C   0  0  2  0  0  0  0  0  0  0  0  0
    8.6420  -17.4175   21.0174 N   0  0  0  0  0  0  0  0  0  0  0  0
    9.7702  -15.8478   22.4049 C   0  0  0  0  0  0  0  0  0  0  0  0
   10.7702  -15.1522   22.7993 O   0  0  0  0  0  0  0  0  0  0  0  0
    7.5281  -11.4541   26.4378 C   0  0  0  0  0  0  0  0  0  0  0  0
    6.3029  -12.6646   25.9168 S   0  0  0  0  0  0  0  0  0  0  0  0
    6.8907  -14.3716   26.2381 C   0  0  0  0  0  0  0  0  0  0  0  0
    7.1827  -14.9762   24.9131 C   0  0  0  0  0  0  0  0  0  0  0  0
    8.6281  -15.1264   24.5581 C   0  0  2  0  0  0  0  0  0  0  0  0
    8.6442  -15.8019   23.2661 N   0  0  0  0  0  0  0  0  0  0  0  0
    9.4594  -15.8021   25.5556 C   0  0  0  0  0  0  0  0  0  0  0  0
    9.5643  -17.0524   25.4852 O   0  0  0  0  0  0  0  0  0  0  0  0
   10.1542  -15.1209   26.5989 N   0  0  0  0  0  0  0  0  0  0  0  0
   11.0431  -15.8845   27.4329 C   0  0  1  0  0  0  0  0  0  0  0  0
   11.5557  -15.0002   28.5471 C   0  0  0  0  0  0  0  0  0  0  0  0
   10.1359  -13.9813   29.0992 S   0  0  0  0  0  0  0  0  0  0  0  0
   10.3325  -17.0271   28.0937 C   0  0  0  0  0  0  0  0  0  0  0  0
   11.0926  -17.8811   28.8764 O   0  0  0  0  0  0  0  0  0  0  0  0
    9.1182  -17.2441   27.9777 O   0  0  0  0  0  0  0  0  0  0  0  0
  1  2  1  0
  2  3  2  0
  4  5  1  0
  4  2  1  0
  5  6  1  6
  7  5  1  0
  8  7  2  0
  9 10  1  0
 11 10  1  0
 11 12  1  0
 13 12  1  1
 13 15  1  0
 13 14  1  0
 14  7  1  0
 15 17  1  0
 16 15  2  0
 17 18  1  0
 18 21  1  0
 18 19  1  1
 20 19  1  0
 21 23  2  0
 21 22  1  0
M  END
$$$$
