NMC.pdb
     RDKit          3D

 23 22  0  0  1  0  0  0  0  0999 V2000
    7.9171  -15.5393   17.8100 N   0  0  0  0  0  0  0  0  0  0  0  0
    8.0457  -14.2127   18.2769 C   0  0  0  0  0  0  0  0  0  0  0  0
    7.9762  -13.2970   17.3893 O   0  0  0  0  0  0  0  0  0  0  0  0
    8.2505  -13.8700   19.7080 C   0  0  0  0  0  0  0  0  0  0  0  0
    8.3370  -15.1233   20.5379 C   0  0  2  0  0  0  0  0  0  0  0  0
    7.0123  -15.7101   20.6147 N   0  0  0  0  0  0  0  0  0  0  0  0
    8.8449  -14.8935   21.8941 C   0  0  0  0  0  0  0  0  0  0  0  0
   10.0870  -14.6539   22.0917 O   0  0  0  0  0  0  0  0  0  0  0  0
    6.9543  -11.9845   27.6279 C   0  0  0  0  0  0  0  0  0  0  0  0
    6.0557  -12.2143   26.0860 S   0  0  0  0  0  0  0  0  0  0  0  0
    7.1493  -12.9077   24.7875 C   0  0  0  0  0  0  0  0  0  0  0  0
    7.6008  -14.2352   25.2775 C   0  0  0  0  0  0  0  0  0  0  0  0
    8.5977  -14.9521   24.4232 C   0  0  2  0  0  0  0  0  0  0  0  0
    8.0538  -14.9114   23.0711 N   0  0  0  0  0  0  0  0  0  0  0  0
    8.9395  -16.3098   24.8505 C   0  0  0  0  0  0  0  0  0  0  0  0
    8.8402  -17.2352   24.0063 O   0  0  0  0  0  0  0  0  0  0  0  0
    9.3774  -16.6378   26.1681 N   0  0  0  0  0  0  0  0  0  0  0  0
   10.4903  -17.5383   26.3082 C   0  0  1  0  0  0  0  0  0  0  0  0
   11.6940  -16.9474   25.6095 C   0  0  0  0  0  0  0  0  0  0  0  0
   13.0565  -18.1573   25.8051 S   0  0  0  0  0  0  0  0  0  0  0  0
   10.8797  -17.7129   27.7452 C   0  0  0  0  0  0  0  0  0  0  0  0
   11.0103  -16.5665   28.5123 O   0  0  0  0  0  0  0  0  0  0  0  0
   11.0879  -18.8134   28.2747 O   0  0  0  0  0  0  0  0  0  0  0  0
  1  2  1  0
  2  3  2  0
  4  5  1  0
  4  2  1  0
  5  6  1  1
  7  5  1  0
  8  7  2  0
  9 10  1  0
 11 10  1  0
 11 12  1  0
 13 12  1  1
 13 15  1  0
 13 14  1  0
 14  7  1  0
 15 17  1  0
 16 15  2  0
 17 18  1  0
 18 21  1  0
 18 19  1  6
 20 19  1  0
 21 23  2  0
 21 22  1  0
M  END
$$$$
