NMC.pdb
     RDKit          3D

 23 22  0  0  1  0  0  0  0  0999 V2000
    9.8700  -20.3459   16.9292 N   0  0  0  0  0  0  0  0  0  0  0  0
   10.2550  -20.0217   18.2488 C   0  0  0  0  0  0  0  0  0  0  0  0
   10.5783  -21.0057   18.9959 O   0  0  0  0  0  0  0  0  0  0  0  0
   10.2921  -18.6297   18.7668 C   0  0  0  0  0  0  0  0  0  0  0  0
    9.9053  -18.6035   20.2217 C   0  0  2  0  0  0  0  0  0  0  0  0
    8.4948  -18.9283   20.3231 N   0  0  0  0  0  0  0  0  0  0  0  0
   10.1533  -17.3120   20.8702 C   0  0  0  0  0  0  0  0  0  0  0  0
   11.3427  -16.8467   20.9594 O   0  0  0  0  0  0  0  0  0  0  0  0
    7.9159  -11.6348   19.3773 C   0  0  0  0  0  0  0  0  0  0  0  0
    6.9515  -13.1165   19.7123 S   0  0  0  0  0  0  0  0  0  0  0  0
    8.0407  -14.5141   20.1848 C   0  0  0  0  0  0  0  0  0  0  0  0
    8.5514  -14.2125   21.5466 C   0  0  0  0  0  0  0  0  0  0  0  0
    9.4260  -15.2530   22.1711 C   0  0  2  0  0  0  0  0  0  0  0  0
    9.1522  -16.4836   21.4386 N   0  0  0  0  0  0  0  0  0  0  0  0
    9.2822  -15.4171   23.6186 C   0  0  0  0  0  0  0  0  0  0  0  0
    9.6430  -14.4669   24.3575 O   0  0  0  0  0  0  0  0  0  0  0  0
    8.7569  -16.5925   24.2331 N   0  0  0  0  0  0  0  0  0  0  0  0
    8.8393  -16.7038   25.6648 C   0  0  1  0  0  0  0  0  0  0  0  0
    7.4406  -16.7485   26.2374 C   0  0  0  0  0  0  0  0  0  0  0  0
    6.6190  -15.1912   25.7292 S   0  0  0  0  0  0  0  0  0  0  0  0
    9.5067  -17.9800   26.0805 C   0  0  0  0  0  0  0  0  0  0  0  0
    9.5518  -18.2616   27.4364 O   0  0  0  0  0  0  0  0  0  0  0  0
   10.0128  -18.7845   25.2857 O   0  0  0  0  0  0  0  0  0  0  0  0
  1  2  1  0
  2  3  2  0
  4  5  1  0
  4  2  1  0
  5  6  1  6
  7  5  1  0
  8  7  2  0
  9 10  1  0
 11 10  1  0
 11 12  1  0
 13 12  1  6
 13 15  1  0
 13 14  1  0
 14  7  1  0
 15 17  1  0
 16 15  2  0
 17 18  1  0
 18 21  1  0
 18 19  1  1
 20 19  1  0
 21 23  2  0
 21 22  1  0
M  END
$$$$
