NMC.pdb
     RDKit          3D

 23 22  0  0  1  0  0  0  0  0999 V2000
   10.4484  -16.7622   17.9499 N   0  0  0  0  0  0  0  0  0  0  0  0
    9.7306  -16.9231   19.1554 C   0  0  0  0  0  0  0  0  0  0  0  0
    8.7970  -17.7945   19.1397 O   0  0  0  0  0  0  0  0  0  0  0  0
   10.0198  -16.1412   20.3853 C   0  0  0  0  0  0  0  0  0  0  0  0
    9.5261  -16.8791   21.6013 C   0  0  2  0  0  0  0  0  0  0  0  0
    8.0985  -17.0933   21.4547 N   0  0  0  0  0  0  0  0  0  0  0  0
    9.7834  -16.1719   22.8597 C   0  0  0  0  0  0  0  0  0  0  0  0
   10.9727  -15.8185   23.1758 O   0  0  0  0  0  0  0  0  0  0  0  0
    6.8166  -11.6774   26.7314 C   0  0  0  0  0  0  0  0  0  0  0  0
    6.4651  -12.1465   25.0302 S   0  0  0  0  0  0  0  0  0  0  0  0
    7.7638  -13.2645   24.3773 C   0  0  0  0  0  0  0  0  0  0  0  0
    7.9942  -14.2999   25.4170 C   0  0  0  0  0  0  0  0  0  0  0  0
    9.0816  -15.2883   25.1374 C   0  0  2  0  0  0  0  0  0  0  0  0
    8.7921  -15.8222   23.8119 N   0  0  0  0  0  0  0  0  0  0  0  0
    9.2565  -16.3399   26.1405 C   0  0  0  0  0  0  0  0  0  0  0  0
    9.4418  -15.9908   27.3333 O   0  0  0  0  0  0  0  0  0  0  0  0
    9.2280  -17.7340   25.8385 N   0  0  0  0  0  0  0  0  0  0  0  0
    9.4853  -18.6642   26.9049 C   0  0  1  0  0  0  0  0  0  0  0  0
    8.4688  -19.7817   26.8406 C   0  0  0  0  0  0  0  0  0  0  0  0
    6.8260  -19.0072   27.0860 S   0  0  0  0  0  0  0  0  0  0  0  0
   10.8310  -19.3088   26.7608 C   0  0  0  0  0  0  0  0  0  0  0  0
   11.6173  -18.9068   25.6931 O   0  0  0  0  0  0  0  0  0  0  0  0
   11.2700  -20.1699   27.5358 O   0  0  0  0  0  0  0  0  0  0  0  0
  1  2  1  0
  2  3  2  0
  4  5  1  0
  4  2  1  0
  5  6  1  6
  7  5  1  0
  8  7  2  0
  9 10  1  0
 11 10  1  0
 11 12  1  0
 13 12  1  1
 13 15  1  0
 13 14  1  0
 14  7  1  0
 15 17  1  0
 16 15  2  0
 17 18  1  0
 18 21  1  0
 18 19  1  6
 20 19  1  0
 21 23  2  0
 21 22  1  0
M  END
$$$$
