NMC.pdb
     RDKit          3D

 23 22  0  0  1  0  0  0  0  0999 V2000
   10.1233  -17.1390   17.8780 N   0  0  0  0  0  0  0  0  0  0  0  0
    9.2749  -17.2366   19.0027 C   0  0  0  0  0  0  0  0  0  0  0  0
    8.1221  -17.7446   18.7927 O   0  0  0  0  0  0  0  0  0  0  0  0
    9.6700  -16.7844   20.3618 C   0  0  0  0  0  0  0  0  0  0  0  0
    8.5793  -15.9432   20.9699 C   0  0  2  0  0  0  0  0  0  0  0  0
    8.4458  -14.7325   20.1815 N   0  0  0  0  0  0  0  0  0  0  0  0
    8.8278  -15.5852   22.3699 C   0  0  0  0  0  0  0  0  0  0  0  0
   10.0213  -15.3857   22.7883 O   0  0  0  0  0  0  0  0  0  0  0  0
    7.1950  -12.0464   27.5961 C   0  0  0  0  0  0  0  0  0  0  0  0
    7.6628  -12.0586   25.8586 S   0  0  0  0  0  0  0  0  0  0  0  0
    6.5357  -13.1278   24.8842 C   0  0  0  0  0  0  0  0  0  0  0  0
    6.8248  -14.5278   25.2876 C   0  0  0  0  0  0  0  0  0  0  0  0
    8.0918  -15.1210   24.7582 C   0  0  2  0  0  0  0  0  0  0  0  0
    7.8231  -15.4298   23.3588 N   0  0  0  0  0  0  0  0  0  0  0  0
    8.6107  -16.2727   25.4979 C   0  0  0  0  0  0  0  0  0  0  0  0
    7.8167  -17.2108   25.7593 O   0  0  0  0  0  0  0  0  0  0  0  0
    9.9635  -16.3871   25.9362 N   0  0  0  0  0  0  0  0  0  0  0  0
   10.3556  -17.5910   26.6188 C   0  0  1  0  0  0  0  0  0  0  0  0
   11.8316  -17.8282   26.3919 C   0  0  0  0  0  0  0  0  0  0  0  0
   12.0899  -17.8104   24.5776 S   0  0  0  0  0  0  0  0  0  0  0  0
   10.1707  -17.4686   28.1013 C   0  0  0  0  0  0  0  0  0  0  0  0
   10.5251  -18.5595   28.8783 O   0  0  0  0  0  0  0  0  0  0  0  0
    9.7237  -16.4569   28.6595 O   0  0  0  0  0  0  0  0  0  0  0  0
  1  2  1  0
  2  3  2  0
  4  5  1  0
  4  2  1  0
  5  6  1  6
  7  5  1  0
  8  7  2  0
  9 10  1  0
 11 10  1  0
 11 12  1  0
 13 12  1  1
 13 15  1  0
 13 14  1  0
 14  7  1  0
 15 17  1  0
 16 15  2  0
 17 18  1  0
 18 21  1  0
 18 19  1  1
 20 19  1  0
 21 23  2  0
 21 22  1  0
M  END
$$$$
