NMC.pdb
     RDKit          3D

 23 22  0  0  1  0  0  0  0  0999 V2000
   12.8090  -17.3650   18.4154 N   0  0  0  0  0  0  0  0  0  0  0  0
   11.5517  -16.8813   18.8392 C   0  0  0  0  0  0  0  0  0  0  0  0
   10.5682  -17.1188   18.0599 O   0  0  0  0  0  0  0  0  0  0  0  0
   11.3522  -16.1373   20.1098 C   0  0  0  0  0  0  0  0  0  0  0  0
   10.3962  -16.8799   21.0051 C   0  0  2  0  0  0  0  0  0  0  0  0
    9.1157  -16.9688   20.3287 N   0  0  0  0  0  0  0  0  0  0  0  0
   10.2097  -16.2476   22.3149 C   0  0  0  0  0  0  0  0  0  0  0  0
   11.2179  -15.8334   22.9867 O   0  0  0  0  0  0  0  0  0  0  0  0
    6.6220  -11.8961   26.9262 C   0  0  0  0  0  0  0  0  0  0  0  0
    7.7628  -13.0396   26.1332 S   0  0  0  0  0  0  0  0  0  0  0  0
    6.9349  -14.6302   25.7493 C   0  0  0  0  0  0  0  0  0  0  0  0
    7.4038  -15.0377   24.4001 C   0  0  0  0  0  0  0  0  0  0  0  0
    8.7960  -15.5787   24.3186 C   0  0  2  0  0  0  0  0  0  0  0  0
    8.9561  -16.0385   22.9443 N   0  0  0  0  0  0  0  0  0  0  0  0
    9.1338  -16.6115   25.2994 C   0  0  0  0  0  0  0  0  0  0  0  0
    8.3887  -17.6208   25.3718 O   0  0  0  0  0  0  0  0  0  0  0  0
   10.2584  -16.5345   26.1739 N   0  0  0  0  0  0  0  0  0  0  0  0
   10.5020  -17.6378   27.0639 C   0  0  1  0  0  0  0  0  0  0  0  0
   11.9879  -17.9138   27.1122 C   0  0  0  0  0  0  0  0  0  0  0  0
   12.4863  -18.3845   25.4126 S   0  0  0  0  0  0  0  0  0  0  0  0
   10.0867  -17.3150   28.4676 C   0  0  0  0  0  0  0  0  0  0  0  0
   10.3034  -18.2844   29.4336 O   0  0  0  0  0  0  0  0  0  0  0  0
    9.5672  -16.2416   28.8038 O   0  0  0  0  0  0  0  0  0  0  0  0
  1  2  1  0
  2  3  2  0
  4  5  1  0
  4  2  1  0
  5  6  1  6
  7  5  1  0
  8  7  2  0
  9 10  1  0
 11 10  1  0
 11 12  1  0
 13 12  1  6
 13 15  1  0
 13 14  1  0
 14  7  1  0
 15 17  1  0
 16 15  2  0
 17 18  1  0
 18 21  1  0
 18 19  1  1
 20 19  1  0
 21 23  2  0
 21 22  1  0
M  END
$$$$
