NMC.pdb
     RDKit          3D

 23 22  0  0  1  0  0  0  0  0999 V2000
   11.4801  -16.7760   18.1300 N   0  0  0  0  0  0  0  0  0  0  0  0
   10.3312  -16.7849   18.9511 C   0  0  0  0  0  0  0  0  0  0  0  0
    9.3972  -17.5817   18.5994 O   0  0  0  0  0  0  0  0  0  0  0  0
   10.1870  -15.9306   20.1582 C   0  0  0  0  0  0  0  0  0  0  0  0
   10.0708  -16.7856   21.3921 C   0  0  2  0  0  0  0  0  0  0  0  0
    8.9219  -17.6577   21.2344 N   0  0  0  0  0  0  0  0  0  0  0  0
    9.9258  -16.0117   22.6291 C   0  0  0  0  0  0  0  0  0  0  0  0
   10.8393  -15.1924   22.9946 O   0  0  0  0  0  0  0  0  0  0  0  0
    7.2786  -11.9341   25.2417 C   0  0  0  0  0  0  0  0  0  0  0  0
    6.1037  -13.0691   25.9960 S   0  0  0  0  0  0  0  0  0  0  0  0
    6.9017  -14.6730   26.3881 C   0  0  0  0  0  0  0  0  0  0  0  0
    7.2636  -15.2956   25.0890 C   0  0  0  0  0  0  0  0  0  0  0  0
    8.7243  -15.3724   24.7759 C   0  0  2  0  0  0  0  0  0  0  0  0
    8.8144  -16.0850   23.5071 N   0  0  0  0  0  0  0  0  0  0  0  0
    9.5656  -15.9678   25.8154 C   0  0  0  0  0  0  0  0  0  0  0  0
    9.8647  -17.1833   25.7062 O   0  0  0  0  0  0  0  0  0  0  0  0
   10.0620  -15.2456   26.9411 N   0  0  0  0  0  0  0  0  0  0  0  0
   10.9629  -15.9208   27.8363 C   0  0  1  0  0  0  0  0  0  0  0  0
   11.3495  -14.9765   28.9522 C   0  0  0  0  0  0  0  0  0  0  0  0
   10.7310  -13.3198   28.4711 S   0  0  0  0  0  0  0  0  0  0  0  0
   10.3086  -17.1008   28.4895 C   0  0  0  0  0  0  0  0  0  0  0  0
   11.0878  -17.8709   29.3377 O   0  0  0  0  0  0  0  0  0  0  0  0
    9.1242  -17.4184   28.3126 O   0  0  0  0  0  0  0  0  0  0  0  0
  1  2  1  0
  2  3  2  0
  4  5  1  0
  4  2  1  0
  5  6  1  6
  7  5  1  0
  8  7  2  0
  9 10  1  0
 11 10  1  0
 11 12  1  0
 13 12  1  1
 13 15  1  0
 13 14  1  0
 14  7  1  0
 15 17  1  0
 16 15  2  0
 17 18  1  0
 18 21  1  0
 18 19  1  1
 20 19  1  0
 21 23  2  0
 21 22  1  0
M  END
$$$$
