NMC.pdb
     RDKit          3D

 23 22  0  0  1  0  0  0  0  0999 V2000
   11.7981  -17.0786   18.0071 N   0  0  0  0  0  0  0  0  0  0  0  0
   11.0766  -17.6165   19.0954 C   0  0  0  0  0  0  0  0  0  0  0  0
   10.3149  -18.6063   18.8285 O   0  0  0  0  0  0  0  0  0  0  0  0
   11.1759  -17.0855   20.4795 C   0  0  0  0  0  0  0  0  0  0  0  0
    9.8085  -16.9945   21.1032 C   0  0  2  0  0  0  0  0  0  0  0  0
    8.9127  -16.3724   20.1463 N   0  0  0  0  0  0  0  0  0  0  0  0
    9.7857  -16.2319   22.3554 C   0  0  0  0  0  0  0  0  0  0  0  0
   10.8758  -15.9474   22.9637 O   0  0  0  0  0  0  0  0  0  0  0  0
    7.2693  -11.4724   27.3066 C   0  0  0  0  0  0  0  0  0  0  0  0
    7.6926  -12.4034   25.8261 S   0  0  0  0  0  0  0  0  0  0  0  0
    6.8863  -14.0504   25.8351 C   0  0  0  0  0  0  0  0  0  0  0  0
    7.1867  -14.6770   24.5224 C   0  0  0  0  0  0  0  0  0  0  0  0
    8.5882  -15.1616   24.3255 C   0  0  2  0  0  0  0  0  0  0  0  0
    8.6129  -15.7528   22.9929 N   0  0  0  0  0  0  0  0  0  0  0  0
    9.0949  -16.0722   25.3534 C   0  0  0  0  0  0  0  0  0  0  0  0
    8.5921  -17.2218   25.4213 O   0  0  0  0  0  0  0  0  0  0  0  0
   10.1245  -15.7266   26.2785 N   0  0  0  0  0  0  0  0  0  0  0  0
   10.6867  -16.7730   27.0895 C   0  0  1  0  0  0  0  0  0  0  0  0
   12.1709  -16.5311   27.2477 C   0  0  0  0  0  0  0  0  0  0  0  0
   12.3633  -14.7777   27.7450 S   0  0  0  0  0  0  0  0  0  0  0  0
   10.1085  -16.7688   28.4725 C   0  0  0  0  0  0  0  0  0  0  0  0
    9.1653  -15.7967   28.7642 O   0  0  0  0  0  0  0  0  0  0  0  0
   10.4259  -17.5780   29.3554 O   0  0  0  0  0  0  0  0  0  0  0  0
  1  2  1  0
  2  3  2  0
  4  5  1  0
  4  2  1  0
  5  6  1  6
  7  5  1  0
  8  7  2  0
  9 10  1  0
 11 10  1  0
 11 12  1  0
 13 12  1  1
 13 15  1  0
 13 14  1  0
 14  7  1  0
 15 17  1  0
 16 15  2  0
 17 18  1  0
 18 21  1  0
 18 19  1  1
 20 19  1  0
 21 23  2  0
 21 22  1  0
M  END
$$$$
