NMC.pdb
     RDKit          3D

 23 22  0  0  1  0  0  0  0  0999 V2000
   11.4008  -18.9997   19.3747 N   0  0  0  0  0  0  0  0  0  0  0  0
   11.5656  -17.6135   19.1614 C   0  0  0  0  0  0  0  0  0  0  0  0
   12.1495  -17.2790   18.0759 O   0  0  0  0  0  0  0  0  0  0  0  0
   11.0988  -16.5811   20.1226 C   0  0  0  0  0  0  0  0  0  0  0  0
   10.6174  -17.2302   21.3931 C   0  0  2  0  0  0  0  0  0  0  0  0
    9.2886  -17.7627   21.1563 N   0  0  0  0  0  0  0  0  0  0  0  0
   10.5761  -16.3156   22.5385 C   0  0  0  0  0  0  0  0  0  0  0  0
   11.6283  -15.6854   22.9059 O   0  0  0  0  0  0  0  0  0  0  0  0
    5.6599  -11.8874   26.7774 C   0  0  0  0  0  0  0  0  0  0  0  0
    6.0320  -13.1924   25.5957 S   0  0  0  0  0  0  0  0  0  0  0  0
    7.7722  -13.7474   25.7592 C   0  0  0  0  0  0  0  0  0  0  0  0
    8.0353  -14.6604   24.6175 C   0  0  0  0  0  0  0  0  0  0  0  0
    9.4229  -15.2097   24.5153 C   0  0  2  0  0  0  0  0  0  0  0  0
    9.4245  -16.0461   23.3211 N   0  0  0  0  0  0  0  0  0  0  0  0
    9.9133  -15.9188   25.6983 C   0  0  0  0  0  0  0  0  0  0  0  0
    9.8282  -17.1725   25.7106 O   0  0  0  0  0  0  0  0  0  0  0  0
   10.4801  -15.2663   26.8333 N   0  0  0  0  0  0  0  0  0  0  0  0
   11.2056  -16.0664   27.7833 C   0  0  1  0  0  0  0  0  0  0  0  0
   11.6778  -15.1816   28.9148 C   0  0  0  0  0  0  0  0  0  0  0  0
   10.2833  -14.0633   29.3191 S   0  0  0  0  0  0  0  0  0  0  0  0
   10.3305  -17.1137   28.4032 C   0  0  0  0  0  0  0  0  0  0  0  0
   10.9176  -17.9722   29.3187 O   0  0  0  0  0  0  0  0  0  0  0  0
    9.1267  -17.2493   28.1432 O   0  0  0  0  0  0  0  0  0  0  0  0
  1  2  1  0
  2  3  2  0
  4  5  1  0
  4  2  1  0
  5  6  1  6
  7  5  1  0
  8  7  2  0
  9 10  1  0
 11 10  1  0
 11 12  1  0
 13 12  1  1
 13 15  1  0
 13 14  1  0
 14  7  1  0
 15 17  1  0
 16 15  2  0
 17 18  1  0
 18 21  1  0
 18 19  1  1
 20 19  1  0
 21 23  2  0
 21 22  1  0
M  END
$$$$
