NMC.pdb
     RDKit          3D

 23 22  0  0  1  0  0  0  0  0999 V2000
    6.6046  -17.3413   18.5930 N   0  0  0  0  0  0  0  0  0  0  0  0
    7.4051  -18.2226   19.3526 C   0  0  0  0  0  0  0  0  0  0  0  0
    7.6995  -19.3334   18.7954 O   0  0  0  0  0  0  0  0  0  0  0  0
    7.8913  -17.9059   20.7204 C   0  0  0  0  0  0  0  0  0  0  0  0
    8.3452  -16.4722   20.7944 C   0  0  2  0  0  0  0  0  0  0  0  0
    9.4156  -16.2840   19.8331 N   0  0  0  0  0  0  0  0  0  0  0  0
    8.8136  -16.0744   22.1256 C   0  0  0  0  0  0  0  0  0  0  0  0
   10.0401  -16.2315   22.4575 O   0  0  0  0  0  0  0  0  0  0  0  0
    6.6691  -11.1078   25.7145 C   0  0  0  0  0  0  0  0  0  0  0  0
    6.4183  -12.5188   26.8026 S   0  0  0  0  0  0  0  0  0  0  0  0
    7.6455  -13.8374   26.4588 C   0  0  0  0  0  0  0  0  0  0  0  0
    7.4746  -14.2146   25.0324 C   0  0  0  0  0  0  0  0  0  0  0  0
    8.4583  -15.2001   24.4858 C   0  0  2  0  0  0  0  0  0  0  0  0
    7.9986  -15.5023   23.1356 N   0  0  0  0  0  0  0  0  0  0  0  0
    8.6643  -16.4045   25.2918 C   0  0  0  0  0  0  0  0  0  0  0  0
    7.7319  -17.2455   25.3426 O   0  0  0  0  0  0  0  0  0  0  0  0
    9.8613  -16.6742   26.0197 N   0  0  0  0  0  0  0  0  0  0  0  0
    9.9567  -17.9215   26.7296 C   0  0  1  0  0  0  0  0  0  0  0  0
   11.0356  -18.7693   26.0943 C   0  0  0  0  0  0  0  0  0  0  0  0
   12.4708  -17.6643   25.8157 S   0  0  0  0  0  0  0  0  0  0  0  0
   10.3686  -17.7133   28.1558 C   0  0  0  0  0  0  0  0  0  0  0  0
   10.4369  -18.8338   28.9678 O   0  0  0  0  0  0  0  0  0  0  0  0
   10.6469  -16.6069   28.6390 O   0  0  0  0  0  0  0  0  0  0  0  0
  1  2  1  0
  2  3  2  0
  4  5  1  0
  4  2  1  0
  5  6  1  6
  7  5  1  0
  8  7  2  0
  9 10  1  0
 11 10  1  0
 11 12  1  0
 13 12  1  1
 13 15  1  0
 13 14  1  0
 14  7  1  0
 15 17  1  0
 16 15  2  0
 17 18  1  0
 18 21  1  0
 18 19  1  6
 20 19  1  0
 21 23  2  0
 21 22  1  0
M  END
$$$$
