NMC.pdb
     RDKit          3D

 23 22  0  0  1  0  0  0  0  0999 V2000
    7.8542  -17.3395   17.7382 N   0  0  0  0  0  0  0  0  0  0  0  0
    8.8319  -16.3234   17.8170 C   0  0  0  0  0  0  0  0  0  0  0  0
    9.3279  -15.9356   16.7058 O   0  0  0  0  0  0  0  0  0  0  0  0
    9.2783  -15.7213   19.0999 C   0  0  0  0  0  0  0  0  0  0  0  0
    8.6710  -16.4602   20.2627 C   0  0  2  0  0  0  0  0  0  0  0  0
    7.2272  -16.3563   20.1634 N   0  0  0  0  0  0  0  0  0  0  0  0
    9.1048  -15.9542   21.5688 C   0  0  0  0  0  0  0  0  0  0  0  0
   10.3080  -16.1324   21.9684 O   0  0  0  0  0  0  0  0  0  0  0  0
    5.2736  -12.5254   26.8263 C   0  0  0  0  0  0  0  0  0  0  0  0
    6.6528  -11.9384   25.8308 S   0  0  0  0  0  0  0  0  0  0  0  0
    7.9131  -13.2533   25.6174 C   0  0  0  0  0  0  0  0  0  0  0  0
    7.7536  -13.7737   24.2354 C   0  0  0  0  0  0  0  0  0  0  0  0
    8.6848  -14.8719   23.8300 C   0  0  2  0  0  0  0  0  0  0  0  0
    8.2790  -15.2495   22.4814 N   0  0  0  0  0  0  0  0  0  0  0  0
    8.7485  -16.0176   24.7389 C   0  0  0  0  0  0  0  0  0  0  0  0
    8.1021  -17.0502   24.4308 O   0  0  0  0  0  0  0  0  0  0  0  0
    9.5016  -16.0252   25.9506 N   0  0  0  0  0  0  0  0  0  0  0  0
   10.0036  -17.2853   26.4290 C   0  0  1  0  0  0  0  0  0  0  0  0
   10.9961  -17.8329   25.4283 C   0  0  0  0  0  0  0  0  0  0  0  0
   11.6195  -19.4105   26.1220 S   0  0  0  0  0  0  0  0  0  0  0  0
   10.7492  -17.1267   27.7197 C   0  0  0  0  0  0  0  0  0  0  0  0
   11.1840  -18.2821   28.3488 O   0  0  0  0  0  0  0  0  0  0  0  0
   10.9933  -16.0317   28.2454 O   0  0  0  0  0  0  0  0  0  0  0  0
  1  2  1  0
  2  3  2  0
  4  5  1  0
  4  2  1  0
  5  6  1  1
  7  5  1  0
  8  7  2  0
  9 10  1  0
 11 10  1  0
 11 12  1  0
 13 12  1  1
 13 15  1  0
 13 14  1  0
 14  7  1  0
 15 17  1  0
 16 15  2  0
 17 18  1  0
 18 21  1  0
 18 19  1  6
 20 19  1  0
 21 23  2  0
 21 22  1  0
M  END
$$$$
