NMC.pdb
     RDKit          3D

 23 22  0  0  1  0  0  0  0  0999 V2000
   10.0072  -17.6019   19.5549 N   0  0  0  0  0  0  0  0  0  0  0  0
    9.9662  -18.3521   20.7507 C   0  0  0  0  0  0  0  0  0  0  0  0
   10.1513  -19.6099   20.6298 O   0  0  0  0  0  0  0  0  0  0  0  0
    9.7245  -17.7442   22.0848 C   0  0  0  0  0  0  0  0  0  0  0  0
    9.2935  -16.3094   21.9344 C   0  0  2  0  0  0  0  0  0  0  0  0
   10.2446  -15.6373   21.0691 N   0  0  0  0  0  0  0  0  0  0  0  0
    9.2035  -15.5887   23.2082 C   0  0  0  0  0  0  0  0  0  0  0  0
   10.2348  -15.4572   23.9555 O   0  0  0  0  0  0  0  0  0  0  0  0
    6.9729  -10.7309   25.8777 C   0  0  0  0  0  0  0  0  0  0  0  0
    7.1491  -12.1242   27.0026 S   0  0  0  0  0  0  0  0  0  0  0  0
    6.0423  -13.5030   26.5160 C   0  0  0  0  0  0  0  0  0  0  0  0
    6.4927  -13.9554   25.1748 C   0  0  0  0  0  0  0  0  0  0  0  0
    7.8576  -14.5634   25.1051 C   0  0  2  0  0  0  0  0  0  0  0  0
    8.0240  -14.9911   23.7212 N   0  0  0  0  0  0  0  0  0  0  0  0
    8.1223  -15.6397   26.0613 C   0  0  0  0  0  0  0  0  0  0  0  0
    8.5530  -15.3239   27.1988 O   0  0  0  0  0  0  0  0  0  0  0  0
    7.9187  -17.0219   25.7729 N   0  0  0  0  0  0  0  0  0  0  0  0
    8.1437  -17.9748   26.8266 C   0  0  1  0  0  0  0  0  0  0  0  0
    7.4513  -19.2722   26.4746 C   0  0  0  0  0  0  0  0  0  0  0  0
    8.0613  -19.7552   24.8152 S   0  0  0  0  0  0  0  0  0  0  0  0
    9.5997  -18.2997   26.9736 C   0  0  0  0  0  0  0  0  0  0  0  0
    9.9694  -19.0885   28.0510 O   0  0  0  0  0  0  0  0  0  0  0  0
   10.4769  -17.9049   26.1928 O   0  0  0  0  0  0  0  0  0  0  0  0
  1  2  1  0
  2  3  2  0
  4  5  1  0
  4  2  1  0
  5  6  1  6
  7  5  1  0
  8  7  2  0
  9 10  1  0
 11 10  1  0
 11 12  1  0
 13 12  1  6
 13 15  1  0
 13 14  1  0
 14  7  1  0
 15 17  1  0
 16 15  2  0
 17 18  1  0
 18 21  1  0
 18 19  1  6
 20 19  1  0
 21 23  2  0
 21 22  1  0
M  END
$$$$
