CGR.pdb
     RDKit          3D

 22 21  0  0  1  0  0  0  0  0999 V2000
   26.1483  -17.2516  -17.5339 N   0  0  0  0  0  0  0  0  0  0  0  0
   27.0571  -16.7124  -16.5478 C   0  0  1  0  0  0  0  0  0  0  0  0
   26.3468  -15.7173  -15.6429 C   0  0  0  0  0  0  0  0  0  0  0  0
   24.9184  -16.5432  -14.8791 S   0  0  0  0  0  0  0  0  0  0  0  0
   27.6387  -17.8268  -15.7729 C   0  0  0  0  0  0  0  0  0  0  0  0
   28.4055  -17.5722  -14.8146 O   0  0  0  0  0  0  0  0  0  0  0  0
   27.3182  -19.1607  -16.1281 N   0  0  0  0  0  0  0  0  0  0  0  0
   27.8324  -20.2436  -15.3154 C   0  0  0  0  0  0  0  0  0  0  0  0
   26.7304  -20.8459  -14.4958 C   0  0  0  0  0  0  0  0  0  0  0  0
   26.9899  -21.8269  -13.7295 O   0  0  0  0  0  0  0  0  0  0  0  0
   19.2046  -23.5965  -13.9524 N   0  0  0  0  0  0  0  0  0  0  0  0
   18.7891  -22.3032  -13.5422 C   0  0  0  0  0  0  0  0  0  0  0  0
   17.5777  -22.1041  -13.1434 N   0  0  0  0  0  0  0  0  0  0  0  0
   19.6669  -21.1809  -13.5476 N   0  0  0  0  0  0  0  0  0  0  0  0
   21.0355  -21.2693  -13.9491 C   0  0  0  0  0  0  0  0  0  0  0  0
   22.0278  -20.9761  -12.8692 C   0  0  0  0  0  0  0  0  0  0  0  0
   23.2494  -20.2441  -13.3388 C   0  0  0  0  0  0  0  0  0  0  0  0
   24.2947  -21.1231  -13.9363 C   0  0  2  0  0  0  0  0  0  0  0  0
   25.3924  -20.3805  -14.5231 N   0  0  0  0  0  0  0  0  0  0  0  0
   23.6374  -21.9019  -15.0443 C   0  0  0  0  0  0  0  0  0  0  0  0
   23.3165  -23.1143  -14.9044 O   0  0  0  0  0  0  0  0  0  0  0  0
   23.3732  -21.2915  -16.2456 O   0  0  0  0  0  0  0  0  0  0  0  0
  2  1  1  6
  2  5  1  0
  2  3  1  0
  4  3  1  0
  5  6  2  0
  7  5  1  0
  7  8  1  0
  8  9  1  0
  9 19  1  0
  9 10  2  0
 11 12  1  0
 12 13  2  0
 14 12  1  0
 14 15  1  0
 16 17  1  0
 16 15  1  0
 18 17  1  6
 18 20  1  0
 19 18  1  0
 20 22  1  0
 21 20  2  0
M  END
$$$$
