CGR.pdb
     RDKit          3D

 22 21  0  0  1  0  0  0  0  0999 V2000
   27.4433  -21.7502  -13.4770 N   0  0  0  0  0  0  0  0  0  0  0  0
   27.1931  -21.1454  -12.1883 C   0  0  1  0  0  0  0  0  0  0  0  0
   28.2341  -20.0808  -11.8779 C   0  0  0  0  0  0  0  0  0  0  0  0
   29.8356  -20.8966  -11.6031 S   0  0  0  0  0  0  0  0  0  0  0  0
   25.8276  -20.5833  -12.1805 C   0  0  0  0  0  0  0  0  0  0  0  0
   25.4099  -20.0024  -11.1512 O   0  0  0  0  0  0  0  0  0  0  0  0
   25.0175  -20.7117  -13.3361 N   0  0  0  0  0  0  0  0  0  0  0  0
   23.6924  -20.1273  -13.3297 C   0  0  0  0  0  0  0  0  0  0  0  0
   22.6501  -21.2049  -13.2880 C   0  0  0  0  0  0  0  0  0  0  0  0
   22.8534  -22.2917  -13.9160 O   0  0  0  0  0  0  0  0  0  0  0  0
   18.8609  -24.7219   -7.2383 N   0  0  0  0  0  0  0  0  0  0  0  0
   17.6267  -24.3992   -7.8599 C   0  0  0  0  0  0  0  0  0  0  0  0
   16.5126  -24.6020   -7.2403 N   0  0  0  0  0  0  0  0  0  0  0  0
   17.5528  -23.8459   -9.1708 N   0  0  0  0  0  0  0  0  0  0  0  0
   18.7044  -23.6419   -9.9919 C   0  0  0  0  0  0  0  0  0  0  0  0
   18.4257  -23.0168  -11.3217 C   0  0  0  0  0  0  0  0  0  0  0  0
   19.2922  -21.8349  -11.6395 C   0  0  0  0  0  0  0  0  0  0  0  0
   20.4443  -22.1464  -12.5327 C   0  0  2  0  0  0  0  0  0  0  0  0
   21.4296  -21.0844  -12.5785 N   0  0  0  0  0  0  0  0  0  0  0  0
   19.8941  -22.3077  -13.9245 C   0  0  0  0  0  0  0  0  0  0  0  0
   19.8188  -21.3359  -14.7260 O   0  0  0  0  0  0  0  0  0  0  0  0
   19.4579  -23.5387  -14.3490 O   0  0  0  0  0  0  0  0  0  0  0  0
  2  1  1  6
  2  5  1  0
  2  3  1  0
  4  3  1  0
  5  6  2  0
  7  5  1  0
  7  8  1  0
  8  9  1  0
  9 19  1  0
  9 10  2  0
 11 12  1  0
 12 13  2  0
 14 12  1  0
 14 15  1  0
 16 17  1  0
 16 15  1  0
 18 17  1  1
 18 20  1  0
 19 18  1  0
 20 22  1  0
 21 20  2  0
M  END
$$$$
