CGR.pdb
     RDKit          3D

 22 21  0  0  1  0  0  0  0  0999 V2000
   34.3812   -8.2605  -17.9800 N   0  0  0  0  0  0  0  0  0  0  0  0
   33.6064   -9.4388  -17.6636 C   0  0  1  0  0  0  0  0  0  0  0  0
   34.2733  -10.2460  -16.5604 C   0  0  0  0  0  0  0  0  0  0  0  0
   35.5774  -11.2747  -17.3000 S   0  0  0  0  0  0  0  0  0  0  0  0
   32.2416   -9.0254  -17.2801 C   0  0  0  0  0  0  0  0  0  0  0  0
   32.0629   -7.8895  -16.7810 O   0  0  0  0  0  0  0  0  0  0  0  0
   31.1622   -9.9207  -17.4839 N   0  0  0  0  0  0  0  0  0  0  0  0
   29.8346   -9.5226  -17.0637 C   0  0  0  0  0  0  0  0  0  0  0  0
   28.8511   -9.7417  -18.1745 C   0  0  0  0  0  0  0  0  0  0  0  0
   29.2775  -10.0622  -19.3287 O   0  0  0  0  0  0  0  0  0  0  0  0
   22.1740  -15.1429  -19.3183 N   0  0  0  0  0  0  0  0  0  0  0  0
   22.2720  -14.3808  -20.5113 C   0  0  0  0  0  0  0  0  0  0  0  0
   21.5492  -14.6814  -21.5377 N   0  0  0  0  0  0  0  0  0  0  0  0
   23.1527  -13.2679  -20.6371 N   0  0  0  0  0  0  0  0  0  0  0  0
   24.0277  -12.8495  -19.5876 C   0  0  0  0  0  0  0  0  0  0  0  0
   24.8330  -11.6262  -19.8906 C   0  0  0  0  0  0  0  0  0  0  0  0
   25.7457  -11.2001  -18.7797 C   0  0  0  0  0  0  0  0  0  0  0  0
   26.5080   -9.9506  -19.0626 C   0  0  2  0  0  0  0  0  0  0  0  0
   27.4494   -9.6110  -18.0141 N   0  0  0  0  0  0  0  0  0  0  0  0
   25.5060   -8.8302  -19.1454 C   0  0  0  0  0  0  0  0  0  0  0  0
   25.3618   -7.9972  -18.2085 O   0  0  0  0  0  0  0  0  0  0  0  0
   24.7199   -8.6971  -20.2634 O   0  0  0  0  0  0  0  0  0  0  0  0
  2  1  1  1
  2  5  1  0
  2  3  1  0
  4  3  1  0
  5  6  2  0
  7  5  1  0
  7  8  1  0
  8  9  1  0
  9 19  1  0
  9 10  2  0
 11 12  1  0
 12 13  2  0
 14 12  1  0
 14 15  1  0
 16 17  1  0
 16 15  1  0
 18 17  1  1
 18 20  1  0
 19 18  1  0
 20 22  1  0
 21 20  2  0
M  END
$$$$
