CGR.pdb
     RDKit          3D

 22 21  0  0  1  0  0  0  0  0999 V2000
   21.5326   -7.3115  -15.5712 N   0  0  0  0  0  0  0  0  0  0  0  0
   21.4276   -8.4938  -14.7466 C   0  0  1  0  0  0  0  0  0  0  0  0
   22.7569   -9.2303  -14.6832 C   0  0  0  0  0  0  0  0  0  0  0  0
   22.9549  -10.2045  -16.2056 S   0  0  0  0  0  0  0  0  0  0  0  0
   20.9646   -8.0993  -13.4010 C   0  0  0  0  0  0  0  0  0  0  0  0
   20.7253   -8.9882  -12.5502 O   0  0  0  0  0  0  0  0  0  0  0  0
   20.8004   -6.7246  -13.0989 N   0  0  0  0  0  0  0  0  0  0  0  0
   20.3852   -6.3467  -11.7638 C   0  0  0  0  0  0  0  0  0  0  0  0
   19.0954   -5.5835  -11.8180 C   0  0  0  0  0  0  0  0  0  0  0  0
   18.6704   -5.1586  -12.9386 O   0  0  0  0  0  0  0  0  0  0  0  0
   12.5440   -7.7545   -6.7040 N   0  0  0  0  0  0  0  0  0  0  0  0
   12.9636   -8.4995   -7.8365 C   0  0  0  0  0  0  0  0  0  0  0  0
   12.3985   -9.6244   -8.1222 N   0  0  0  0  0  0  0  0  0  0  0  0
   14.0067   -8.0558   -8.6996 N   0  0  0  0  0  0  0  0  0  0  0  0
   14.5779   -6.7486   -8.6166 C   0  0  0  0  0  0  0  0  0  0  0  0
   15.5516   -6.4176   -9.7024 C   0  0  0  0  0  0  0  0  0  0  0  0
   16.1055   -5.0261   -9.6288 C   0  0  0  0  0  0  0  0  0  0  0  0
   17.0053   -4.6675  -10.7619 C   0  0  2  0  0  0  0  0  0  0  0  0
   18.3059   -5.3012  -10.6757 N   0  0  0  0  0  0  0  0  0  0  0  0
   17.2264   -3.1798  -10.6976 C   0  0  0  0  0  0  0  0  0  0  0  0
   16.3312   -2.3596  -11.0414 O   0  0  0  0  0  0  0  0  0  0  0  0
   18.4290   -2.6858  -10.2555 O   0  0  0  0  0  0  0  0  0  0  0  0
  2  1  1  6
  2  5  1  0
  2  3  1  0
  4  3  1  0
  5  6  2  0
  7  5  1  0
  7  8  1  0
  8  9  1  0
  9 19  1  0
  9 10  2  0
 11 12  1  0
 12 13  2  0
 14 12  1  0
 14 15  1  0
 16 17  1  0
 16 15  1  0
 18 17  1  1
 18 20  1  0
 19 18  1  0
 20 22  1  0
 21 20  2  0
M  END
$$$$
