CGR.pdb
     RDKit          3D

 22 21  0  0  1  0  0  0  0  0999 V2000
   25.9289  -18.8863  -11.1725 N   0  0  0  0  0  0  0  0  0  0  0  0
   26.5328  -20.1902  -11.0169 C   0  0  1  0  0  0  0  0  0  0  0  0
   25.4856  -21.2330  -10.6569 C   0  0  0  0  0  0  0  0  0  0  0  0
   24.7446  -20.7848   -9.0582 S   0  0  0  0  0  0  0  0  0  0  0  0
   27.2385  -20.5428  -12.2651 C   0  0  0  0  0  0  0  0  0  0  0  0
   27.6283  -21.7218  -12.4367 O   0  0  0  0  0  0  0  0  0  0  0  0
   27.4608  -19.5419  -13.2433 N   0  0  0  0  0  0  0  0  0  0  0  0
   27.7512  -19.9456  -14.6036 C   0  0  0  0  0  0  0  0  0  0  0  0
   26.4892  -20.3508  -15.3053 C   0  0  0  0  0  0  0  0  0  0  0  0
   26.5332  -20.6529  -16.5396 O   0  0  0  0  0  0  0  0  0  0  0  0
   20.5918  -21.6269  -11.5241 N   0  0  0  0  0  0  0  0  0  0  0  0
   19.9794  -22.4942  -12.4656 C   0  0  0  0  0  0  0  0  0  0  0  0
   19.5925  -23.6732  -12.1098 N   0  0  0  0  0  0  0  0  0  0  0  0
   19.7628  -22.1185  -13.8228 N   0  0  0  0  0  0  0  0  0  0  0  0
   20.2933  -20.9185  -14.3888 C   0  0  0  0  0  0  0  0  0  0  0  0
   21.5294  -21.1035  -15.2102 C   0  0  0  0  0  0  0  0  0  0  0  0
   22.7963  -20.7071  -14.5127 C   0  0  0  0  0  0  0  0  0  0  0  0
   24.0158  -20.7994  -15.3652 C   0  0  2  0  0  0  0  0  0  0  0  0
   25.2268  -20.4191  -14.6655 N   0  0  0  0  0  0  0  0  0  0  0  0
   23.8336  -19.8321  -16.5042 C   0  0  0  0  0  0  0  0  0  0  0  0
   24.0093  -18.5912  -16.3565 O   0  0  0  0  0  0  0  0  0  0  0  0
   23.4664  -20.2961  -17.7433 O   0  0  0  0  0  0  0  0  0  0  0  0
  2  1  1  6
  2  5  1  0
  2  3  1  0
  4  3  1  0
  5  6  2  0
  7  5  1  0
  7  8  1  0
  8  9  1  0
  9 19  1  0
  9 10  2  0
 11 12  1  0
 12 13  2  0
 14 12  1  0
 14 15  1  0
 16 17  1  0
 16 15  1  0
 18 17  1  1
 18 20  1  0
 19 18  1  0
 20 22  1  0
 21 20  2  0
M  END
$$$$
