CGR.pdb
     RDKit          3D

 22 21  0  0  1  0  0  0  0  0999 V2000
   30.6386  -20.0889  -10.7322 N   0  0  0  0  0  0  0  0  0  0  0  0
   30.8375  -21.2611  -11.5540 C   0  0  1  0  0  0  0  0  0  0  0  0
   30.8612  -22.5218  -10.7033 C   0  0  0  0  0  0  0  0  0  0  0  0
   31.8717  -22.2066   -9.2251 S   0  0  0  0  0  0  0  0  0  0  0  0
   29.7703  -21.3179  -12.5731 C   0  0  0  0  0  0  0  0  0  0  0  0
   29.6986  -22.3141  -13.3305 O   0  0  0  0  0  0  0  0  0  0  0  0
   28.8493  -20.2456  -12.6741 N   0  0  0  0  0  0  0  0  0  0  0  0
   27.8746  -20.2595  -13.7452 C   0  0  0  0  0  0  0  0  0  0  0  0
   26.4995  -20.4894  -13.1925 C   0  0  0  0  0  0  0  0  0  0  0  0
   26.3712  -21.0235  -12.0458 O   0  0  0  0  0  0  0  0  0  0  0  0
   19.2745  -23.4460  -14.7649 N   0  0  0  0  0  0  0  0  0  0  0  0
   18.7314  -22.1400  -14.6510 C   0  0  0  0  0  0  0  0  0  0  0  0
   17.4955  -21.9199  -14.9514 N   0  0  0  0  0  0  0  0  0  0  0  0
   19.5033  -21.0272  -14.2083 N   0  0  0  0  0  0  0  0  0  0  0  0
   20.8706  -21.1421  -13.8090 C   0  0  0  0  0  0  0  0  0  0  0  0
   21.5453  -19.8447  -13.4955 C   0  0  0  0  0  0  0  0  0  0  0  0
   22.9097  -19.6991  -14.1003 C   0  0  0  0  0  0  0  0  0  0  0  0
   23.9914  -20.3832  -13.3361 C   0  0  2  0  0  0  0  0  0  0  0  0
   25.3118  -20.1414  -13.8825 N   0  0  0  0  0  0  0  0  0  0  0  0
   23.7315  -21.8630  -13.4300 C   0  0  0  0  0  0  0  0  0  0  0  0
   23.9108  -22.5022  -14.5032 O   0  0  0  0  0  0  0  0  0  0  0  0
   23.2871  -22.5506  -12.3276 O   0  0  0  0  0  0  0  0  0  0  0  0
  2  1  1  1
  2  5  1  0
  2  3  1  0
  4  3  1  0
  5  6  2  0
  7  5  1  0
  7  8  1  0
  8  9  1  0
  9 19  1  0
  9 10  2  0
 11 12  1  0
 12 13  2  0
 14 12  1  0
 14 15  1  0
 16 17  1  0
 16 15  1  0
 18 17  1  6
 18 20  1  0
 19 18  1  0
 20 22  1  0
 21 20  2  0
M  END
$$$$
