CGR.pdb
     RDKit          3D

 22 21  0  0  1  0  0  0  0  0999 V2000
   30.3461  -21.3974  -10.8818 N   0  0  0  0  0  0  0  0  0  0  0  0
   28.9308  -21.5546  -10.6349 C   0  0  1  0  0  0  0  0  0  0  0  0
   28.5686  -21.0801   -9.2359 C   0  0  0  0  0  0  0  0  0  0  0  0
   29.6354  -21.9357   -8.0376 S   0  0  0  0  0  0  0  0  0  0  0  0
   28.1796  -20.8130  -11.6675 C   0  0  0  0  0  0  0  0  0  0  0  0
   28.6741  -19.7688  -12.1537 O   0  0  0  0  0  0  0  0  0  0  0  0
   26.9156  -21.2966  -12.0878 N   0  0  0  0  0  0  0  0  0  0  0  0
   26.2656  -20.6652  -13.2176 C   0  0  0  0  0  0  0  0  0  0  0  0
   24.9280  -21.2962  -13.4660 C   0  0  0  0  0  0  0  0  0  0  0  0
   24.8330  -22.5639  -13.4903 O   0  0  0  0  0  0  0  0  0  0  0  0
   19.2021  -24.4848  -13.7316 N   0  0  0  0  0  0  0  0  0  0  0  0
   18.2208  -23.4865  -13.4987 C   0  0  0  0  0  0  0  0  0  0  0  0
   17.0412  -23.6007  -14.0102 N   0  0  0  0  0  0  0  0  0  0  0  0
   18.4789  -22.3315  -12.7054 N   0  0  0  0  0  0  0  0  0  0  0  0
   19.7291  -21.6400  -12.7270 C   0  0  0  0  0  0  0  0  0  0  0  0
   19.9728  -20.8195  -13.9535 C   0  0  0  0  0  0  0  0  0  0  0  0
   21.3377  -20.2019  -14.0192 C   0  0  0  0  0  0  0  0  0  0  0  0
   22.4559  -21.1819  -13.9114 C   0  0  2  0  0  0  0  0  0  0  0  0
   23.7409  -20.5527  -13.6795 N   0  0  0  0  0  0  0  0  0  0  0  0
   22.5413  -21.9025  -15.2303 C   0  0  0  0  0  0  0  0  0  0  0  0
   23.2921  -21.4987  -16.1607 O   0  0  0  0  0  0  0  0  0  0  0  0
   21.7883  -23.0310  -15.4428 O   0  0  0  0  0  0  0  0  0  0  0  0
  2  1  1  6
  2  5  1  0
  2  3  1  0
  4  3  1  0
  5  6  2  0
  7  5  1  0
  7  8  1  0
  8  9  1  0
  9 19  1  0
  9 10  2  0
 11 12  1  0
 12 13  2  0
 14 12  1  0
 14 15  1  0
 16 17  1  0
 16 15  1  0
 18 17  1  6
 18 20  1  0
 19 18  1  0
 20 22  1  0
 21 20  2  0
M  END
$$$$
