CGR.pdb
     RDKit          3D

 22 21  0  0  1  0  0  0  0  0999 V2000
   22.0220  -11.0986  -16.7572 N   0  0  0  0  0  0  0  0  0  0  0  0
   22.9934  -11.0937  -15.6869 C   0  0  1  0  0  0  0  0  0  0  0  0
   24.3982  -11.3083  -16.2290 C   0  0  0  0  0  0  0  0  0  0  0  0
   24.4846  -12.9611  -16.9817 S   0  0  0  0  0  0  0  0  0  0  0  0
   22.8881   -9.8178  -14.9509 C   0  0  0  0  0  0  0  0  0  0  0  0
   23.5645   -9.6542  -13.9083 O   0  0  0  0  0  0  0  0  0  0  0  0
   22.0251   -8.8048  -15.4379 N   0  0  0  0  0  0  0  0  0  0  0  0
   21.7888   -7.6341  -14.6187 C   0  0  0  0  0  0  0  0  0  0  0  0
   20.3190   -7.4558  -14.3799 C   0  0  0  0  0  0  0  0  0  0  0  0
   19.6415   -6.7362  -15.1799 O   0  0  0  0  0  0  0  0  0  0  0  0
   14.1298  -10.2787   -9.0191 N   0  0  0  0  0  0  0  0  0  0  0  0
   13.3831   -9.9374  -10.1765 C   0  0  0  0  0  0  0  0  0  0  0  0
   12.0969  -10.0467  -10.1777 N   0  0  0  0  0  0  0  0  0  0  0  0
   13.9988   -9.4658  -11.3717 N   0  0  0  0  0  0  0  0  0  0  0  0
   15.3810   -9.6767  -11.6667 C   0  0  0  0  0  0  0  0  0  0  0  0
   16.2223   -8.4402  -11.6547 C   0  0  0  0  0  0  0  0  0  0  0  0
   17.6719   -8.6797  -11.9548 C   0  0  0  0  0  0  0  0  0  0  0  0
   18.2063   -7.8561  -13.0765 C   0  0  2  0  0  0  0  0  0  0  0  0
   19.6254   -8.0513  -13.2973 N   0  0  0  0  0  0  0  0  0  0  0  0
   18.0056   -6.4124  -12.7002 C   0  0  0  0  0  0  0  0  0  0  0  0
   18.9111   -5.7419  -12.1320 O   0  0  0  0  0  0  0  0  0  0  0  0
   16.8109   -5.7938  -12.9752 O   0  0  0  0  0  0  0  0  0  0  0  0
  2  1  1  6
  2  5  1  0
  2  3  1  0
  4  3  1  0
  5  6  2  0
  7  5  1  0
  7  8  1  0
  8  9  1  0
  9 19  1  0
  9 10  2  0
 11 12  1  0
 12 13  2  0
 14 12  1  0
 14 15  1  0
 16 17  1  0
 16 15  1  0
 18 17  1  1
 18 20  1  0
 19 18  1  0
 20 22  1  0
 21 20  2  0
M  END
$$$$
