IYW.pdb
     RDKit          3D

 35 37  0  0  1  0  0  0  0  0999 V2000
   32.5674  -24.4073  -17.3806 C   0  0  0  0  0  0  0  0  0  0  0  0
   31.2212  -24.1470  -18.0171 C   0  0  0  0  0  0  0  0  0  0  0  0
   30.3675  -23.2324  -17.1963 C   0  0  2  0  0  0  0  0  0  0  0  0
   30.1767  -23.7254  -15.7873 C   0  0  0  0  0  0  0  0  0  0  0  0
   29.0815  -22.8808  -17.8738 C   0  0  2  0  0  0  0  0  0  0  0  0
   29.4200  -22.3243  -19.1775 N   0  0  0  0  0  0  0  0  0  0  0  0
   28.1973  -21.9819  -17.1104 C   0  0  0  0  0  0  0  0  0  0  0  0
   28.3961  -20.7426  -17.1101 O   0  0  0  0  0  0  0  0  0  0  0  0
   20.7625  -18.6439  -13.7127 O   0  0  0  0  0  0  0  0  0  0  0  0
   21.7355  -19.4572  -14.2922 C   0  0  0  0  0  0  0  0  0  0  0  0
   22.5423  -18.8958  -15.2662 C   0  0  0  0  0  0  0  0  0  0  0  0
   23.5208  -19.6374  -15.8786 C   0  0  0  0  0  0  0  0  0  0  0  0
   23.7100  -20.9762  -15.5190 C   0  0  0  0  0  0  0  0  0  0  0  0
   24.7430  -21.7915  -16.1821 C   0  0  0  0  0  0  0  0  0  0  0  0
   26.1312  -21.5612  -15.6924 C   0  0  2  0  0  0  0  0  0  0  0  0
   27.0902  -22.4427  -16.3440 N   0  0  0  0  0  0  0  0  0  0  0  0
   26.2016  -21.8272  -14.2332 C   0  0  0  0  0  0  0  0  0  0  0  0
   26.1742  -23.0149  -13.7771 O   0  0  0  0  0  0  0  0  0  0  0  0
   22.9028  -21.5196  -14.5525 C   0  0  0  0  0  0  0  0  0  0  0  0
   21.9116  -20.7813  -13.9268 C   0  0  0  0  0  0  0  0  0  0  0  0
   26.3027  -20.7811  -13.2797 N   0  0  0  0  0  0  0  0  0  0  0  0
   26.2840  -21.0821  -11.8554 C   0  0  1  0  0  0  0  0  0  0  0  0
   27.4198  -20.3730  -11.1616 C   0  0  0  0  0  0  0  0  0  0  0  0
   27.2748  -20.2198   -9.7121 C   0  0  0  0  0  0  0  0  0  0  0  0
   26.1218  -19.7908   -9.0476 C   0  0  0  0  0  0  0  0  0  0  0  0
   26.3616  -19.7410   -7.7307 N   0  0  0  0  0  0  0  0  0  0  0  0
   27.6230  -20.1165   -7.4706 C   0  0  0  0  0  0  0  0  0  0  0  0
   28.3576  -20.2535   -6.2966 C   0  0  0  0  0  0  0  0  0  0  0  0
   29.6444  -20.6862   -6.3671 C   0  0  0  0  0  0  0  0  0  0  0  0
   30.2434  -20.9933   -7.5694 C   0  0  0  0  0  0  0  0  0  0  0  0
   29.5130  -20.8548   -8.7202 C   0  0  0  0  0  0  0  0  0  0  0  0
   28.2053  -20.4197   -8.7082 C   0  0  0  0  0  0  0  0  0  0  0  0
   24.9615  -20.9209  -11.2742 C   0  0  0  0  0  0  0  0  0  0  0  0
   24.3509  -21.7393  -10.3450 O   0  0  0  0  0  0  0  0  0  0  0  0
   24.2597  -19.9209  -11.6492 O   0  0  0  0  0  0  0  0  0  0  0  0
  2  1  1  0
  3  5  1  0
  3  2  1  0
  3  4  1  1
  5  6  1  6
  7  8  2  0
  7  5  1  0
  9 10  1  0
 10 11  2  0
 10 20  1  0
 11 12  1  0
 12 13  2  0
 13 14  1  0
 15 14  1  6
 15 16  1  0
 15 17  1  0
 16  7  1  0
 17 21  1  0
 18 17  2  0
 19 13  1  0
 20 19  2  0
 21 22  1  0
 22 23  1  1
 22 33  1  0
 24 23  1  0
 25 24  2  0
 26 25  1  0
 27 26  1  0
 27 32  2  0
 28 29  2  0
 28 27  1  0
 29 30  1  0
 30 31  2  0
 32 31  1  0
 32 24  1  0
 33 35  2  0
 33 34  1  0
M  END
$$$$
