IYW.pdb
     RDKit          3D

 35 37  0  0  1  0  0  0  0  0999 V2000
   33.1530  -30.7498  -18.5848 C   0  0  0  0  0  0  0  0  0  0  0  0
   32.4324  -31.1241  -17.3098 C   0  0  0  0  0  0  0  0  0  0  0  0
   30.9809  -31.4096  -17.5356 C   0  0  2  0  0  0  0  0  0  0  0  0
   30.2726  -30.2884  -18.2468 C   0  0  0  0  0  0  0  0  0  0  0  0
   30.2791  -31.8505  -16.2908 C   0  0  2  0  0  0  0  0  0  0  0  0
   30.9833  -33.0253  -15.7929 N   0  0  0  0  0  0  0  0  0  0  0  0
   28.8351  -32.1044  -16.4430 C   0  0  0  0  0  0  0  0  0  0  0  0
   28.4285  -33.1031  -17.0854 O   0  0  0  0  0  0  0  0  0  0  0  0
   26.1442  -36.9637  -12.4834 O   0  0  0  0  0  0  0  0  0  0  0  0
   26.0228  -35.6818  -13.0181 C   0  0  0  0  0  0  0  0  0  0  0  0
   27.1189  -34.8423  -12.9242 C   0  0  0  0  0  0  0  0  0  0  0  0
   27.0704  -33.5676  -13.4293 C   0  0  0  0  0  0  0  0  0  0  0  0
   25.9032  -33.1053  -14.0470 C   0  0  0  0  0  0  0  0  0  0  0  0
   25.8287  -31.7320  -14.5760 C   0  0  0  0  0  0  0  0  0  0  0  0
   26.4065  -31.5542  -15.9378 C   0  0  2  0  0  0  0  0  0  0  0  0
   27.8322  -31.2605  -15.8888 N   0  0  0  0  0  0  0  0  0  0  0  0
   25.7408  -30.4175  -16.6233 C   0  0  0  0  0  0  0  0  0  0  0  0
   25.9844  -29.2133  -16.2920 O   0  0  0  0  0  0  0  0  0  0  0  0
   24.8245  -33.9480  -14.1325 C   0  0  0  0  0  0  0  0  0  0  0  0
   24.8610  -35.2371  -13.6266 C   0  0  0  0  0  0  0  0  0  0  0  0
   24.8073  -30.6125  -17.6742 N   0  0  0  0  0  0  0  0  0  0  0  0
   24.2328  -29.4682  -18.3670 C   0  0  1  0  0  0  0  0  0  0  0  0
   24.1186  -29.7601  -19.8421 C   0  0  0  0  0  0  0  0  0  0  0  0
   23.1293  -30.7762  -20.2083 C   0  0  0  0  0  0  0  0  0  0  0  0
   21.7432  -30.5939  -20.2360 C   0  0  0  0  0  0  0  0  0  0  0  0
   21.1518  -31.7437  -20.5859 N   0  0  0  0  0  0  0  0  0  0  0  0
   22.0714  -32.6972  -20.7973 C   0  0  0  0  0  0  0  0  0  0  0  0
   21.9943  -34.0315  -21.1851 C   0  0  0  0  0  0  0  0  0  0  0  0
   23.1417  -34.7451  -21.3350 C   0  0  0  0  0  0  0  0  0  0  0  0
   24.3807  -34.1846  -21.1134 C   0  0  0  0  0  0  0  0  0  0  0  0
   24.4472  -32.8706  -20.7311 C   0  0  0  0  0  0  0  0  0  0  0  0
   23.3169  -32.1000  -20.5633 C   0  0  0  0  0  0  0  0  0  0  0  0
   23.0395  -28.9650  -17.7068 C   0  0  0  0  0  0  0  0  0  0  0  0
   22.4604  -27.7212  -17.8599 O   0  0  0  0  0  0  0  0  0  0  0  0
   22.4398  -29.7364  -16.8830 O   0  0  0  0  0  0  0  0  0  0  0  0
  2  1  1  0
  3  5  1  0
  3  2  1  0
  3  4  1  1
  5  6  1  6
  7  8  2  0
  7  5  1  0
  9 10  1  0
 10 11  2  0
 10 20  1  0
 11 12  1  0
 12 13  2  0
 13 14  1  0
 15 14  1  1
 15 16  1  0
 15 17  1  0
 16  7  1  0
 17 21  1  0
 18 17  2  0
 19 13  1  0
 20 19  2  0
 21 22  1  0
 22 23  1  6
 22 33  1  0
 24 23  1  0
 25 24  2  0
 26 25  1  0
 27 26  1  0
 27 32  2  0
 28 29  2  0
 28 27  1  0
 29 30  1  0
 30 31  2  0
 32 31  1  0
 32 24  1  0
 33 35  2  0
 33 34  1  0
M  END
$$$$
