IYW.pdb
     RDKit          3D

 35 37  0  0  1  0  0  0  0  0999 V2000
   27.1402  -21.2565  -20.3484 C   0  0  0  0  0  0  0  0  0  0  0  0
   27.9331  -21.3971  -19.0691 C   0  0  0  0  0  0  0  0  0  0  0  0
   27.0561  -21.5470  -17.8659 C   0  0  2  0  0  0  0  0  0  0  0  0
   25.9727  -20.5044  -17.8039 C   0  0  0  0  0  0  0  0  0  0  0  0
   27.8353  -21.6594  -16.5944 C   0  0  2  0  0  0  0  0  0  0  0  0
   28.6408  -22.8702  -16.6889 N   0  0  0  0  0  0  0  0  0  0  0  0
   27.0277  -21.6369  -15.3615 C   0  0  0  0  0  0  0  0  0  0  0  0
   26.4754  -22.6834  -14.9430 O   0  0  0  0  0  0  0  0  0  0  0  0
   30.6759  -22.1057   -9.1621 O   0  0  0  0  0  0  0  0  0  0  0  0
   29.7422  -21.4615   -9.9726 C   0  0  0  0  0  0  0  0  0  0  0  0
   28.4367  -21.3962   -9.5186 C   0  0  0  0  0  0  0  0  0  0  0  0
   27.4656  -20.7769  -10.2641 C   0  0  0  0  0  0  0  0  0  0  0  0
   27.7923  -20.2033  -11.4977 C   0  0  0  0  0  0  0  0  0  0  0  0
   26.7564  -19.5526  -12.3194 C   0  0  0  0  0  0  0  0  0  0  0  0
   26.1014  -20.4418  -13.3195 C   0  0  2  0  0  0  0  0  0  0  0  0
   26.8245  -20.4627  -14.5836 N   0  0  0  0  0  0  0  0  0  0  0  0
   24.7263  -19.9570  -13.6007 C   0  0  0  0  0  0  0  0  0  0  0  0
   24.5137  -19.0304  -14.4465 O   0  0  0  0  0  0  0  0  0  0  0  0
   29.0900  -20.2758  -11.9355 C   0  0  0  0  0  0  0  0  0  0  0  0
   30.0794  -20.8982  -11.1920 C   0  0  0  0  0  0  0  0  0  0  0  0
   23.5879  -20.4968  -12.9478 N   0  0  0  0  0  0  0  0  0  0  0  0
   22.2486  -20.1191  -13.3759 C   0  0  1  0  0  0  0  0  0  0  0  0
   22.0902  -20.3626  -14.8557 C   0  0  0  0  0  0  0  0  0  0  0  0
   20.7777  -20.0266  -15.4122 C   0  0  0  0  0  0  0  0  0  0  0  0
   20.0738  -18.8399  -15.1849 C   0  0  0  0  0  0  0  0  0  0  0  0
   18.8995  -18.8912  -15.8271 N   0  0  0  0  0  0  0  0  0  0  0  0
   18.7737  -20.0565  -16.4797 C   0  0  0  0  0  0  0  0  0  0  0  0
   17.7804  -20.5960  -17.2915 C   0  0  0  0  0  0  0  0  0  0  0  0
   17.9660  -21.8282  -17.8350 C   0  0  0  0  0  0  0  0  0  0  0  0
   19.1107  -22.5597  -17.6047 C   0  0  0  0  0  0  0  0  0  0  0  0
   20.0830  -22.0210  -16.8037 C   0  0  0  0  0  0  0  0  0  0  0  0
   19.9481  -20.7770  -16.2261 C   0  0  0  0  0  0  0  0  0  0  0  0
   21.2172  -20.6664  -12.5101 C   0  0  0  0  0  0  0  0  0  0  0  0
   19.9698  -20.1329  -12.2547 O   0  0  0  0  0  0  0  0  0  0  0  0
   21.4657  -21.7614  -11.8998 O   0  0  0  0  0  0  0  0  0  0  0  0
  2  1  1  0
  3  5  1  0
  3  2  1  0
  3  4  1  1
  5  6  1  6
  7  8  2  0
  7  5  1  0
  9 10  1  0
 10 11  2  0
 10 20  1  0
 11 12  1  0
 12 13  2  0
 13 14  1  0
 15 14  1  1
 15 16  1  0
 15 17  1  0
 16  7  1  0
 17 21  1  0
 18 17  2  0
 19 13  1  0
 20 19  2  0
 21 22  1  0
 22 23  1  6
 22 33  1  0
 24 23  1  0
 25 24  2  0
 26 25  1  0
 27 26  1  0
 27 32  2  0
 28 29  2  0
 28 27  1  0
 29 30  1  0
 30 31  2  0
 32 31  1  0
 32 24  1  0
 33 35  2  0
 33 34  1  0
M  END
$$$$
