IYW.pdb
     RDKit          3D

 35 37  0  0  1  0  0  0  0  0999 V2000
   29.6439  -17.7588  -17.3569 C   0  0  0  0  0  0  0  0  0  0  0  0
   28.4099  -18.6317  -17.3395 C   0  0  0  0  0  0  0  0  0  0  0  0
   27.5797  -18.4243  -16.1120 C   0  0  2  0  0  0  0  0  0  0  0  0
   28.4043  -18.3817  -14.8539 C   0  0  0  0  0  0  0  0  0  0  0  0
   26.4285  -19.3752  -16.0266 C   0  0  2  0  0  0  0  0  0  0  0  0
   25.6183  -19.1785  -17.2219 N   0  0  0  0  0  0  0  0  0  0  0  0
   25.6210  -19.2715  -14.7978 C   0  0  0  0  0  0  0  0  0  0  0  0
   24.9318  -18.2469  -14.5734 O   0  0  0  0  0  0  0  0  0  0  0  0
   19.6028  -19.0240  -16.1980 O   0  0  0  0  0  0  0  0  0  0  0  0
   20.5587  -19.4817  -15.2923 C   0  0  0  0  0  0  0  0  0  0  0  0
   21.4681  -20.4229  -15.7418 C   0  0  0  0  0  0  0  0  0  0  0  0
   22.4367  -20.9170  -14.9051 C   0  0  0  0  0  0  0  0  0  0  0  0
   22.5110  -20.4687  -13.5818 C   0  0  0  0  0  0  0  0  0  0  0  0
   23.5327  -21.0050  -12.6651 C   0  0  0  0  0  0  0  0  0  0  0  0
   24.7853  -20.2020  -12.5860 C   0  0  2  0  0  0  0  0  0  0  0  0
   25.5683  -20.2952  -13.8106 N   0  0  0  0  0  0  0  0  0  0  0  0
   25.6346  -20.7013  -11.4750 C   0  0  0  0  0  0  0  0  0  0  0  0
   26.0412  -21.9067  -11.4459 O   0  0  0  0  0  0  0  0  0  0  0  0
   21.6030  -19.5361  -13.1497 C   0  0  0  0  0  0  0  0  0  0  0  0
   20.6206  -19.0294  -13.9847 C   0  0  0  0  0  0  0  0  0  0  0  0
   26.0342  -19.8683  -10.3979 N   0  0  0  0  0  0  0  0  0  0  0  0
   26.3230  -20.4446   -9.0926 C   0  0  1  0  0  0  0  0  0  0  0  0
   26.9505  -19.4070   -8.1959 C   0  0  0  0  0  0  0  0  0  0  0  0
   27.2448  -19.8493   -6.8310 C   0  0  0  0  0  0  0  0  0  0  0  0
   26.6063  -20.8939   -6.1555 C   0  0  0  0  0  0  0  0  0  0  0  0
   27.1104  -20.9957   -4.9187 N   0  0  0  0  0  0  0  0  0  0  0  0
   28.0611  -20.0695   -4.7235 C   0  0  0  0  0  0  0  0  0  0  0  0
   28.8890  -19.7602   -3.6485 C   0  0  0  0  0  0  0  0  0  0  0  0
   29.7879  -18.7482   -3.7746 C   0  0  0  0  0  0  0  0  0  0  0  0
   29.9029  -18.0184   -4.9377 C   0  0  0  0  0  0  0  0  0  0  0  0
   29.0833  -18.3293   -5.9906 C   0  0  0  0  0  0  0  0  0  0  0  0
   28.1537  -19.3443   -5.9185 C   0  0  0  0  0  0  0  0  0  0  0  0
   25.1914  -21.1780   -8.5500 C   0  0  0  0  0  0  0  0  0  0  0  0
   23.8712  -20.7756   -8.5188 O   0  0  0  0  0  0  0  0  0  0  0  0
   25.4131  -22.3256   -8.0331 O   0  0  0  0  0  0  0  0  0  0  0  0
  2  1  1  0
  3  5  1  0
  3  2  1  0
  3  4  1  1
  5  6  1  6
  7  8  2  0
  7  5  1  0
  9 10  1  0
 10 11  2  0
 10 20  1  0
 11 12  1  0
 12 13  2  0
 13 14  1  0
 15 14  1  6
 15 16  1  0
 15 17  1  0
 16  7  1  0
 17 21  1  0
 18 17  2  0
 19 13  1  0
 20 19  2  0
 21 22  1  0
 22 23  1  1
 22 33  1  0
 24 23  1  0
 25 24  2  0
 26 25  1  0
 27 26  1  0
 27 32  2  0
 28 29  2  0
 28 27  1  0
 29 30  1  0
 30 31  2  0
 32 31  1  0
 32 24  1  0
 33 35  2  0
 33 34  1  0
M  END
$$$$
