IYW.pdb
     RDKit          3D

 35 37  0  0  1  0  0  0  0  0999 V2000
   16.1062  -25.5135    2.1157 C   0  0  0  0  0  0  0  0  0  0  0  0
   14.9514  -24.6691    1.6274 C   0  0  0  0  0  0  0  0  0  0  0  0
   15.2136  -23.2029    1.7713 C   0  0  2  0  0  0  0  0  0  0  0  0
   15.6477  -22.8246    3.1617 C   0  0  0  0  0  0  0  0  0  0  0  0
   14.0875  -22.3624    1.2594 C   0  0  2  0  0  0  0  0  0  0  0  0
   13.8523  -22.7546   -0.1243 N   0  0  0  0  0  0  0  0  0  0  0  0
   14.2844  -20.9073    1.3875 C   0  0  0  0  0  0  0  0  0  0  0  0
   14.8260  -20.2542    0.4626 O   0  0  0  0  0  0  0  0  0  0  0  0
    9.0118  -17.3820   -1.2517 O   0  0  0  0  0  0  0  0  0  0  0  0
    9.8819  -17.6091   -0.1863 C   0  0  0  0  0  0  0  0  0  0  0  0
   10.7754  -16.6029    0.1366 C   0  0  0  0  0  0  0  0  0  0  0  0
   11.6602  -16.7577    1.1736 C   0  0  0  0  0  0  0  0  0  0  0  0
   11.6645  -17.9432    1.9166 C   0  0  0  0  0  0  0  0  0  0  0  0
   12.6225  -18.1326    3.0202 C   0  0  0  0  0  0  0  0  0  0  0  0
   13.9350  -18.7110    2.6166 C   0  0  2  0  0  0  0  0  0  0  0  0
   13.8857  -20.1643    2.5340 N   0  0  0  0  0  0  0  0  0  0  0  0
   14.9715  -18.3566    3.6191 C   0  0  0  0  0  0  0  0  0  0  0  0
   15.1761  -19.0851    4.6422 O   0  0  0  0  0  0  0  0  0  0  0  0
   10.7738  -18.9321    1.5852 C   0  0  0  0  0  0  0  0  0  0  0  0
    9.8754  -18.7879    0.5407 C   0  0  0  0  0  0  0  0  0  0  0  0
   15.7811  -17.1984    3.4900 N   0  0  0  0  0  0  0  0  0  0  0  0
   16.7839  -16.8878    4.4986 C   0  0  1  0  0  0  0  0  0  0  0  0
   17.9758  -16.2235    3.8564 C   0  0  0  0  0  0  0  0  0  0  0  0
   18.8992  -15.5590    4.7789 C   0  0  0  0  0  0  0  0  0  0  0  0
   19.5543  -16.1643    5.8558 C   0  0  0  0  0  0  0  0  0  0  0  0
   20.2934  -15.2490    6.4963 N   0  0  0  0  0  0  0  0  0  0  0  0
   20.1710  -14.0514    5.9043 C   0  0  0  0  0  0  0  0  0  0  0  0
   20.7247  -12.7995    6.1545 C   0  0  0  0  0  0  0  0  0  0  0  0
   20.4087  -11.7601    5.3372 C   0  0  0  0  0  0  0  0  0  0  0  0
   19.5542  -11.9105    4.2668 C   0  0  0  0  0  0  0  0  0  0  0  0
   19.0131  -13.1464    4.0283 C   0  0  0  0  0  0  0  0  0  0  0  0
   19.2978  -14.2350    4.8242 C   0  0  0  0  0  0  0  0  0  0  0  0
   16.2130  -16.2239    5.6589 C   0  0  0  0  0  0  0  0  0  0  0  0
   16.5619  -16.4054    6.9823 O   0  0  0  0  0  0  0  0  0  0  0  0
   15.2781  -15.3747    5.4640 O   0  0  0  0  0  0  0  0  0  0  0  0
  2  1  1  0
  3  5  1  0
  3  2  1  0
  3  4  1  1
  5  6  1  6
  7  8  2  0
  7  5  1  0
  9 10  1  0
 10 11  2  0
 10 20  1  0
 11 12  1  0
 12 13  2  0
 13 14  1  0
 15 14  1  1
 15 16  1  0
 15 17  1  0
 16  7  1  0
 17 21  1  0
 18 17  2  0
 19 13  1  0
 20 19  2  0
 21 22  1  0
 22 23  1  6
 22 33  1  0
 24 23  1  0
 25 24  2  0
 26 25  1  0
 27 26  1  0
 27 32  2  0
 28 29  2  0
 28 27  1  0
 29 30  1  0
 30 31  2  0
 32 31  1  0
 32 24  1  0
 33 35  2  0
 33 34  1  0
M  END
$$$$
