IYW.pdb
     RDKit          3D

 35 37  0  0  1  0  0  0  0  0999 V2000
   15.4430  -23.4964   -5.4874 C   0  0  0  0  0  0  0  0  0  0  0  0
   16.6411  -24.2471   -4.9527 C   0  0  0  0  0  0  0  0  0  0  0  0
   16.3085  -25.0739   -3.7507 C   0  0  2  0  0  0  0  0  0  0  0  0
   15.5600  -24.2974   -2.7011 C   0  0  0  0  0  0  0  0  0  0  0  0
   17.4949  -25.8034   -3.2059 C   0  0  2  0  0  0  0  0  0  0  0  0
   18.0175  -26.6381   -4.2801 N   0  0  0  0  0  0  0  0  0  0  0  0
   17.2411  -26.5853   -1.9824 C   0  0  0  0  0  0  0  0  0  0  0  0
   16.4545  -27.5631   -2.0035 O   0  0  0  0  0  0  0  0  0  0  0  0
   18.3479  -32.6800   -2.3734 O   0  0  0  0  0  0  0  0  0  0  0  0
   18.4498  -31.5158   -1.6132 C   0  0  0  0  0  0  0  0  0  0  0  0
   17.6347  -31.4039   -0.5006 C   0  0  0  0  0  0  0  0  0  0  0  0
   17.6823  -30.2861    0.2934 C   0  0  0  0  0  0  0  0  0  0  0  0
   18.5623  -29.2444   -0.0196 C   0  0  0  0  0  0  0  0  0  0  0  0
   18.6105  -28.0287    0.8117 C   0  0  0  0  0  0  0  0  0  0  0  0
   17.5621  -27.0166    0.5010 C   0  0  2  0  0  0  0  0  0  0  0  0
   17.8521  -26.2947   -0.7303 N   0  0  0  0  0  0  0  0  0  0  0  0
   17.4865  -26.0167    1.5963 C   0  0  0  0  0  0  0  0  0  0  0  0
   18.3970  -25.1421    1.7550 O   0  0  0  0  0  0  0  0  0  0  0  0
   19.3640  -29.3686   -1.1255 C   0  0  0  0  0  0  0  0  0  0  0  0
   19.3253  -30.4921   -1.9350 C   0  0  0  0  0  0  0  0  0  0  0  0
   16.4049  -25.9840    2.5144 N   0  0  0  0  0  0  0  0  0  0  0  0
   16.3698  -24.9835    3.5714 C   0  0  1  0  0  0  0  0  0  0  0  0
   15.1172  -24.1517    3.4555 C   0  0  0  0  0  0  0  0  0  0  0  0
   15.1394  -23.1218    2.4143 C   0  0  0  0  0  0  0  0  0  0  0  0
   14.8305  -23.3181    1.0647 C   0  0  0  0  0  0  0  0  0  0  0  0
   14.9872  -22.1647    0.4018 N   0  0  0  0  0  0  0  0  0  0  0  0
   15.3873  -21.1952    1.2382 C   0  0  0  0  0  0  0  0  0  0  0  0
   15.6720  -19.8435    1.0695 C   0  0  0  0  0  0  0  0  0  0  0  0
   16.0444  -19.1053    2.1486 C   0  0  0  0  0  0  0  0  0  0  0  0
   16.1485  -19.6578    3.4066 C   0  0  0  0  0  0  0  0  0  0  0  0
   15.8670  -20.9894    3.5633 C   0  0  0  0  0  0  0  0  0  0  0  0
   15.4857  -21.7855    2.5049 C   0  0  0  0  0  0  0  0  0  0  0  0
   16.6582  -25.5506    4.8784 C   0  0  0  0  0  0  0  0  0  0  0  0
   16.7828  -24.8734    6.0750 O   0  0  0  0  0  0  0  0  0  0  0  0
   16.8246  -26.8151    4.9597 O   0  0  0  0  0  0  0  0  0  0  0  0
  2  1  1  0
  3  5  1  0
  3  2  1  0
  3  4  1  1
  5  6  1  6
  7  8  2  0
  7  5  1  0
  9 10  1  0
 10 11  2  0
 10 20  1  0
 11 12  1  0
 12 13  2  0
 13 14  1  0
 15 14  1  1
 15 16  1  0
 15 17  1  0
 16  7  1  0
 17 21  1  0
 18 17  2  0
 19 13  1  0
 20 19  2  0
 21 22  1  0
 22 23  1  1
 22 33  1  0
 24 23  1  0
 25 24  2  0
 26 25  1  0
 27 26  1  0
 27 32  2  0
 28 29  2  0
 28 27  1  0
 29 30  1  0
 30 31  2  0
 32 31  1  0
 32 24  1  0
 33 35  2  0
 33 34  1  0
M  END
$$$$
