FYK.pdb
     RDKit          3D

 33 34  0  0  1  0  0  0  0  0999 V2000
   25.0639  -22.5879  -16.7061 N   0  0  0  0  0  0  0  0  0  0  0  0
   24.9277  -21.2795  -16.0432 C   0  0  1  0  0  0  0  0  0  0  0  0
   23.5988  -20.7357  -16.5039 C   0  0  0  0  0  0  0  0  0  0  0  0
   23.5686  -20.2242  -17.8644 C   0  0  0  0  0  0  0  0  0  0  0  0
   24.1793  -19.0280  -18.1652 C   0  0  0  0  0  0  0  0  0  0  0  0
   24.1740  -18.5116  -19.4540 C   0  0  0  0  0  0  0  0  0  0  0  0
   23.5469  -19.2009  -20.4662 C   0  0  0  0  0  0  0  0  0  0  0  0
   22.9362  -20.3953  -20.1695 C   0  0  0  0  0  0  0  0  0  0  0  0
   22.9484  -20.9022  -18.8746 C   0  0  0  0  0  0  0  0  0  0  0  0
   24.8901  -21.5194  -14.5823 C   0  0  0  0  0  0  0  0  0  0  0  0
   24.3483  -22.5557  -14.1033 O   0  0  0  0  0  0  0  0  0  0  0  0
   25.7832  -20.4780   -5.8158 O   0  0  0  0  0  0  0  0  0  0  0  0
   25.9185  -20.3672   -7.2081 C   0  0  0  0  0  0  0  0  0  0  0  0
   25.5379  -19.2178   -7.8397 C   0  0  0  0  0  0  0  0  0  0  0  0
   25.6544  -19.0618   -9.2274 C   0  0  0  0  0  0  0  0  0  0  0  0
   26.1666  -20.0970   -9.9698 C   0  0  0  0  0  0  0  0  0  0  0  0
   26.3057  -19.9696  -11.4302 C   0  0  0  0  0  0  0  0  0  0  0  0
   25.3041  -20.7809  -12.1991 C   0  0  2  0  0  0  0  0  0  0  0  0
   25.4629  -20.5952  -13.6352 N   0  0  0  0  0  0  0  0  0  0  0  0
   23.9075  -20.6124  -11.7711 C   0  0  0  0  0  0  0  0  0  0  0  0
   23.2145  -19.6237  -12.1954 O   0  0  0  0  0  0  0  0  0  0  0  0
   26.5478  -21.2477   -9.3385 C   0  0  0  0  0  0  0  0  0  0  0  0
   26.4373  -21.4135   -7.9669 C   0  0  0  0  0  0  0  0  0  0  0  0
   23.2340  -21.4866  -10.8955 N   0  0  0  0  0  0  0  0  0  0  0  0
   21.8909  -21.2780  -10.4184 C   0  0  1  0  0  0  0  0  0  0  0  0
   21.7059  -22.0779   -9.1477 C   0  0  0  0  0  0  0  0  0  0  0  0
   20.2985  -22.0616   -8.6344 C   0  0  0  0  0  0  0  0  0  0  0  0
   20.1521  -23.2296   -7.6816 C   0  0  0  0  0  0  0  0  0  0  0  0
   18.7547  -23.3155   -7.1104 C   0  0  0  0  0  0  0  0  0  0  0  0
   18.7176  -24.4507   -6.1990 N   0  0  0  0  0  0  0  0  0  0  0  0
   21.5043  -19.8757  -10.2759 C   0  0  0  0  0  0  0  0  0  0  0  0
   20.8624  -19.2933  -11.1891 O   0  0  0  0  0  0  0  0  0  0  0  0
   21.7995  -19.0970   -9.1665 O   0  0  0  0  0  0  0  0  0  0  0  0
  2  1  1  6
  2  3  1  0
  4  3  1  0
  5  4  2  0
  6  5  1  0
  7  6  2  0
  7  8  1  0
  8  9  2  0
  9  4  1  0
 10 19  1  0
 10  2  1  0
 11 10  2  0
 13 12  1  0
 14 13  2  0
 15 14  1  0
 16 22  1  0
 16 15  2  0
 17 16  1  0
 18 19  1  0
 18 17  1  1
 20 21  2  0
 20 18  1  0
 22 23  2  0
 23 13  1  0
 24 20  1  0
 25 24  1  0
 25 31  1  0
 25 26  1  1
 27 26  1  0
 28 27  1  0
 28 29  1  0
 29 30  1  0
 31 33  1  0
 32 31  2  0
M  END
$$$$
