FYK.pdb
     RDKit          3D

 33 34  0  0  1  0  0  0  0  0999 V2000
   24.4017  -19.5791  -16.7122 N   0  0  0  0  0  0  0  0  0  0  0  0
   23.2855  -18.9015  -16.0303 C   0  0  1  0  0  0  0  0  0  0  0  0
   22.1608  -18.8770  -17.0345 C   0  0  0  0  0  0  0  0  0  0  0  0
   22.3567  -17.9953  -18.1737 C   0  0  0  0  0  0  0  0  0  0  0  0
   22.4697  -18.5205  -19.4408 C   0  0  0  0  0  0  0  0  0  0  0  0
   22.6530  -17.7083  -20.5519 C   0  0  0  0  0  0  0  0  0  0  0  0
   22.7256  -16.3429  -20.3986 C   0  0  0  0  0  0  0  0  0  0  0  0
   22.6133  -15.8153  -19.1350 C   0  0  0  0  0  0  0  0  0  0  0  0
   22.4299  -16.6393  -18.0300 C   0  0  0  0  0  0  0  0  0  0  0  0
   22.8995  -19.7336  -14.8678 C   0  0  0  0  0  0  0  0  0  0  0  0
   22.9674  -20.9947  -14.9146 O   0  0  0  0  0  0  0  0  0  0  0  0
   20.6912  -22.4207   -6.7334 O   0  0  0  0  0  0  0  0  0  0  0  0
   21.0393  -21.6373   -7.8444 C   0  0  0  0  0  0  0  0  0  0  0  0
   22.3480  -21.5334   -8.2207 C   0  0  0  0  0  0  0  0  0  0  0  0
   22.7428  -20.7630   -9.3227 C   0  0  0  0  0  0  0  0  0  0  0  0
   21.7828  -20.0950  -10.0421 C   0  0  0  0  0  0  0  0  0  0  0  0
   22.1590  -19.2769  -11.2072 C   0  0  0  0  0  0  0  0  0  0  0  0
   22.0057  -19.9949  -12.5163 C   0  0  2  0  0  0  0  0  0  0  0  0
   22.4302  -19.1590  -13.6313 N   0  0  0  0  0  0  0  0  0  0  0  0
   20.6821  -20.5926  -12.7461 C   0  0  0  0  0  0  0  0  0  0  0  0
   19.6891  -19.8586  -13.0825 O   0  0  0  0  0  0  0  0  0  0  0  0
   20.4729  -20.1986   -9.6662 C   0  0  0  0  0  0  0  0  0  0  0  0
   20.0705  -20.9573   -8.5783 C   0  0  0  0  0  0  0  0  0  0  0  0
   20.3993  -21.9673  -12.6247 N   0  0  0  0  0  0  0  0  0  0  0  0
   19.0864  -22.5399  -12.7772 C   0  0  1  0  0  0  0  0  0  0  0  0
   19.2073  -23.7961  -13.6115 C   0  0  0  0  0  0  0  0  0  0  0  0
   20.0598  -24.8519  -12.9767 C   0  0  0  0  0  0  0  0  0  0  0  0
   20.1728  -25.9948  -13.9638 C   0  0  0  0  0  0  0  0  0  0  0  0
   21.0804  -27.0904  -13.4517 C   0  0  0  0  0  0  0  0  0  0  0  0
   21.0993  -28.1519  -14.4485 N   0  0  0  0  0  0  0  0  0  0  0  0
   18.3623  -22.7494  -11.5250 C   0  0  0  0  0  0  0  0  0  0  0  0
   17.1084  -22.8638  -11.5227 O   0  0  0  0  0  0  0  0  0  0  0  0
   18.9699  -22.8369  -10.2811 O   0  0  0  0  0  0  0  0  0  0  0  0
  2  1  1  6
  2  3  1  0
  4  3  1  0
  5  4  2  0
  6  5  1  0
  7  6  2  0
  7  8  1  0
  8  9  2  0
  9  4  1  0
 10 19  1  0
 10  2  1  0
 11 10  2  0
 13 12  1  0
 14 13  2  0
 15 14  1  0
 16 22  1  0
 16 15  2  0
 17 16  1  0
 18 19  1  0
 18 17  1  1
 20 21  2  0
 20 18  1  0
 22 23  2  0
 23 13  1  0
 24 20  1  0
 25 24  1  0
 25 31  1  0
 25 26  1  1
 27 26  1  0
 28 27  1  0
 28 29  1  0
 29 30  1  0
 31 33  1  0
 32 31  2  0
M  END
$$$$
