FYK.pdb
     RDKit          3D

 33 34  0  0  1  0  0  0  0  0999 V2000
   24.4368  -11.8297  -20.2922 N   0  0  0  0  0  0  0  0  0  0  0  0
   24.4973  -10.5125  -19.6357 C   0  0  1  0  0  0  0  0  0  0  0  0
   23.9185   -9.5423  -20.6345 C   0  0  0  0  0  0  0  0  0  0  0  0
   24.7078   -9.3361  -21.8378 C   0  0  0  0  0  0  0  0  0  0  0  0
   24.2697   -9.8341  -23.0437 C   0  0  0  0  0  0  0  0  0  0  0  0
   24.9953   -9.6522  -24.2134 C   0  0  0  0  0  0  0  0  0  0  0  0
   26.1836   -8.9594  -24.1823 C   0  0  0  0  0  0  0  0  0  0  0  0
   26.6240   -8.4610  -22.9802 C   0  0  0  0  0  0  0  0  0  0  0  0
   25.8881   -8.6497  -21.8154 C   0  0  0  0  0  0  0  0  0  0  0  0
   23.6318  -10.5700  -18.4355 C   0  0  0  0  0  0  0  0  0  0  0  0
   22.5102  -11.1518  -18.4650 O   0  0  0  0  0  0  0  0  0  0  0  0
   24.9974  -16.1621  -15.2222 O   0  0  0  0  0  0  0  0  0  0  0  0
   24.7178  -14.7911  -15.1164 C   0  0  0  0  0  0  0  0  0  0  0  0
   25.6113  -13.8754  -15.5939 C   0  0  0  0  0  0  0  0  0  0  0  0
   25.3750  -12.4967  -15.5103 C   0  0  0  0  0  0  0  0  0  0  0  0
   24.2100  -12.0581  -14.9307 C   0  0  0  0  0  0  0  0  0  0  0  0
   23.9259  -10.6170  -14.8263 C   0  0  0  0  0  0  0  0  0  0  0  0
   23.1666  -10.0709  -16.0001 C   0  0  2  0  0  0  0  0  0  0  0  0
   24.0151   -9.9729  -17.1802 N   0  0  0  0  0  0  0  0  0  0  0  0
   22.4345   -8.8225  -15.7405 C   0  0  0  0  0  0  0  0  0  0  0  0
   23.0377   -7.6949  -15.7913 O   0  0  0  0  0  0  0  0  0  0  0  0
   23.3152  -12.9739  -14.4527 C   0  0  0  0  0  0  0  0  0  0  0  0
   23.5380  -14.3397  -14.5297 C   0  0  0  0  0  0  0  0  0  0  0  0
   21.0624   -8.7563  -15.4280 N   0  0  0  0  0  0  0  0  0  0  0  0
   20.3557   -7.5344  -15.1413 C   0  0  1  0  0  0  0  0  0  0  0  0
   18.9426   -7.6658  -15.6651 C   0  0  0  0  0  0  0  0  0  0  0  0
   18.0914   -6.4645  -15.3877 C   0  0  0  0  0  0  0  0  0  0  0  0
   16.7129   -6.7493  -15.9463 C   0  0  0  0  0  0  0  0  0  0  0  0
   15.7468   -5.6227  -15.6569 C   0  0  0  0  0  0  0  0  0  0  0  0
   14.4612   -5.9809  -16.2395 N   0  0  0  0  0  0  0  0  0  0  0  0
   20.4133   -7.1091  -13.7442 C   0  0  0  0  0  0  0  0  0  0  0  0
   20.2420   -7.9410  -12.8147 O   0  0  0  0  0  0  0  0  0  0  0  0
   20.6521   -5.8043  -13.3381 O   0  0  0  0  0  0  0  0  0  0  0  0
  2  1  1  6
  2  3  1  0
  4  3  1  0
  5  4  2  0
  6  5  1  0
  7  6  2  0
  7  8  1  0
  8  9  2  0
  9  4  1  0
 10 19  1  0
 10  2  1  0
 11 10  2  0
 13 12  1  0
 14 13  2  0
 15 14  1  0
 16 22  1  0
 16 15  2  0
 17 16  1  0
 18 19  1  0
 18 17  1  1
 20 21  2  0
 20 18  1  0
 22 23  2  0
 23 13  1  0
 24 20  1  0
 25 24  1  0
 25 31  1  0
 25 26  1  1
 27 26  1  0
 28 27  1  0
 28 29  1  0
 29 30  1  0
 31 33  1  0
 32 31  2  0
M  END
$$$$
