FYK.pdb
     RDKit          3D

 33 34  0  0  1  0  0  0  0  0999 V2000
   22.2534  -18.7555  -14.9157 N   0  0  0  0  0  0  0  0  0  0  0  0
   22.0853  -20.0357  -15.6248 C   0  0  1  0  0  0  0  0  0  0  0  0
   22.1190  -19.6864  -17.0913 C   0  0  0  0  0  0  0  0  0  0  0  0
   20.9594  -18.9656  -17.5908 C   0  0  0  0  0  0  0  0  0  0  0  0
   21.0694  -17.6385  -17.9383 C   0  0  0  0  0  0  0  0  0  0  0  0
   19.9843  -16.9204  -18.4227 C   0  0  0  0  0  0  0  0  0  0  0  0
   18.7624  -17.5367  -18.5644 C   0  0  0  0  0  0  0  0  0  0  0  0
   18.6490  -18.8615  -18.2184 C   0  0  0  0  0  0  0  0  0  0  0  0
   19.7433  -19.5700  -17.7343 C   0  0  0  0  0  0  0  0  0  0  0  0
   23.2469  -20.8902  -15.2878 C   0  0  0  0  0  0  0  0  0  0  0  0
   24.4082  -20.4032  -15.1812 O   0  0  0  0  0  0  0  0  0  0  0  0
   24.7461  -19.7578   -9.2150 O   0  0  0  0  0  0  0  0  0  0  0  0
   24.5622  -20.7206  -10.2192 C   0  0  0  0  0  0  0  0  0  0  0  0
   25.6272  -21.4479  -10.6681 C   0  0  0  0  0  0  0  0  0  0  0  0
   25.4916  -22.4196  -11.6687 C   0  0  0  0  0  0  0  0  0  0  0  0
   24.2500  -22.6436  -12.2106 C   0  0  0  0  0  0  0  0  0  0  0  0
   24.0679  -23.6575  -13.2628 C   0  0  0  0  0  0  0  0  0  0  0  0
   24.2580  -23.1192  -14.6509 C   0  0  2  0  0  0  0  0  0  0  0  0
   23.1201  -22.3092  -15.0648 N   0  0  0  0  0  0  0  0  0  0  0  0
   24.6191  -24.1230  -15.6629 C   0  0  0  0  0  0  0  0  0  0  0  0
   23.7102  -24.8004  -16.2570 O   0  0  0  0  0  0  0  0  0  0  0  0
   23.1836  -21.9162  -11.7618 C   0  0  0  0  0  0  0  0  0  0  0  0
   23.3055  -20.9528  -10.7729 C   0  0  0  0  0  0  0  0  0  0  0  0
   25.9400  -24.4160  -16.0551 N   0  0  0  0  0  0  0  0  0  0  0  0
   26.2967  -25.4620  -16.9791 C   0  0  1  0  0  0  0  0  0  0  0  0
   27.8054  -25.5215  -17.0738 C   0  0  0  0  0  0  0  0  0  0  0  0
   28.3000  -26.5471  -18.0474 C   0  0  0  0  0  0  0  0  0  0  0  0
   29.8110  -26.4491  -18.0775 C   0  0  0  0  0  0  0  0  0  0  0  0
   30.4166  -27.4234  -19.0626 C   0  0  0  0  0  0  0  0  0  0  0  0
   31.8533  -27.1876  -19.0925 N   0  0  0  0  0  0  0  0  0  0  0  0
   25.6871  -26.7601  -16.6970 C   0  0  0  0  0  0  0  0  0  0  0  0
   25.0953  -27.3998  -17.6057 O   0  0  0  0  0  0  0  0  0  0  0  0
   25.7074  -27.3745  -15.4535 O   0  0  0  0  0  0  0  0  0  0  0  0
  2  1  1  1
  2  3  1  0
  4  3  1  0
  5  4  2  0
  6  5  1  0
  7  6  2  0
  7  8  1  0
  8  9  2  0
  9  4  1  0
 10 19  1  0
 10  2  1  0
 11 10  2  0
 13 12  1  0
 14 13  2  0
 15 14  1  0
 16 22  1  0
 16 15  2  0
 17 16  1  0
 18 19  1  0
 18 17  1  1
 20 21  2  0
 20 18  1  0
 22 23  2  0
 23 13  1  0
 24 20  1  0
 25 24  1  0
 25 31  1  0
 25 26  1  1
 27 26  1  0
 28 27  1  0
 28 29  1  0
 29 30  1  0
 31 33  1  0
 32 31  2  0
M  END
$$$$
