FYK.pdb
     RDKit          3D

 33 34  0  0  1  0  0  0  0  0999 V2000
   28.9018  -21.6541  -18.6444 N   0  0  0  0  0  0  0  0  0  0  0  0
   28.4988  -20.4322  -17.9272 C   0  0  1  0  0  0  0  0  0  0  0  0
   27.5503  -19.7186  -18.8572 C   0  0  0  0  0  0  0  0  0  0  0  0
   28.1580  -19.1216  -20.0352 C   0  0  0  0  0  0  0  0  0  0  0  0
   28.0475  -19.7431  -21.2583 C   0  0  0  0  0  0  0  0  0  0  0  0
   28.6114  -19.1995  -22.4047 C   0  0  0  0  0  0  0  0  0  0  0  0
   29.3006  -18.0109  -22.3325 C   0  0  0  0  0  0  0  0  0  0  0  0
   29.4129  -17.3879  -21.1132 C   0  0  0  0  0  0  0  0  0  0  0  0
   28.8437  -17.9423  -19.9720 C   0  0  0  0  0  0  0  0  0  0  0  0
   27.7787  -20.8489  -16.7022 C   0  0  0  0  0  0  0  0  0  0  0  0
   26.8719  -21.7282  -16.7435 O   0  0  0  0  0  0  0  0  0  0  0  0
   24.6602  -20.7748   -8.3835 O   0  0  0  0  0  0  0  0  0  0  0  0
   25.4656  -20.6193   -9.5220 C   0  0  0  0  0  0  0  0  0  0  0  0
   25.5168  -19.4128  -10.1598 C   0  0  0  0  0  0  0  0  0  0  0  0
   26.3064  -19.2106  -11.2997 C   0  0  0  0  0  0  0  0  0  0  0  0
   27.0485  -20.2585  -11.7860 C   0  0  0  0  0  0  0  0  0  0  0  0
   27.8914  -20.0839  -12.9807 C   0  0  0  0  0  0  0  0  0  0  0  0
   27.2577  -20.5990  -14.2399 C   0  0  2  0  0  0  0  0  0  0  0  0
   28.0680  -20.2819  -15.4083 N   0  0  0  0  0  0  0  0  0  0  0  0
   25.8486  -20.2222  -14.4258 C   0  0  0  0  0  0  0  0  0  0  0  0
   25.5405  -19.0556  -14.8524 O   0  0  0  0  0  0  0  0  0  0  0  0
   26.9978  -21.4662  -11.1482 C   0  0  0  0  0  0  0  0  0  0  0  0
   26.2207  -21.6781  -10.0204 C   0  0  0  0  0  0  0  0  0  0  0  0
   24.7574  -21.0741  -14.1648 N   0  0  0  0  0  0  0  0  0  0  0  0
   23.3796  -20.6545  -14.1875 C   0  0  1  0  0  0  0  0  0  0  0  0
   22.6927  -21.3338  -15.3518 C   0  0  0  0  0  0  0  0  0  0  0  0
   21.2571  -20.9354  -15.5098 C   0  0  0  0  0  0  0  0  0  0  0  0
   20.7148  -21.6712  -16.7173 C   0  0  0  0  0  0  0  0  0  0  0  0
   19.3047  -21.2390  -17.0507 C   0  0  0  0  0  0  0  0  0  0  0  0
   18.7926  -22.1455  -18.0689 N   0  0  0  0  0  0  0  0  0  0  0  0
   22.6684  -20.8248  -12.9221 C   0  0  0  0  0  0  0  0  0  0  0  0
   22.9140  -21.8104  -12.1780 O   0  0  0  0  0  0  0  0  0  0  0  0
   21.7005  -19.9501  -12.4507 O   0  0  0  0  0  0  0  0  0  0  0  0
  2  1  1  6
  2  3  1  0
  4  3  1  0
  5  4  2  0
  6  5  1  0
  7  6  2  0
  7  8  1  0
  8  9  2  0
  9  4  1  0
 10 19  1  0
 10  2  1  0
 11 10  2  0
 13 12  1  0
 14 13  2  0
 15 14  1  0
 16 22  1  0
 16 15  2  0
 17 16  1  0
 18 19  1  0
 18 17  1  1
 20 21  2  0
 20 18  1  0
 22 23  2  0
 23 13  1  0
 24 20  1  0
 25 24  1  0
 25 31  1  0
 25 26  1  6
 27 26  1  0
 28 27  1  0
 28 29  1  0
 29 30  1  0
 31 33  1  0
 32 31  2  0
M  END
$$$$
