FYK.pdb
     RDKit          3D

 33 34  0  0  1  0  0  0  0  0999 V2000
   33.6468  -35.9158   -6.1431 N   0  0  0  0  0  0  0  0  0  0  0  0
   33.3121  -36.2782   -4.7551 C   0  0  1  0  0  0  0  0  0  0  0  0
   34.5013  -35.8490   -3.9332 C   0  0  0  0  0  0  0  0  0  0  0  0
   35.5987  -36.8008   -3.8741 C   0  0  0  0  0  0  0  0  0  0  0  0
   35.6352  -37.7503   -2.8785 C   0  0  0  0  0  0  0  0  0  0  0  0
   36.6652  -38.6775   -2.7941 C   0  0  0  0  0  0  0  0  0  0  0  0
   37.6817  -38.6593   -3.7211 C   0  0  0  0  0  0  0  0  0  0  0  0
   37.6485  -37.7126   -4.7163 C   0  0  0  0  0  0  0  0  0  0  0  0
   36.6113  -36.7894   -4.7902 C   0  0  0  0  0  0  0  0  0  0  0  0
   32.1218  -35.4902   -4.3610 C   0  0  0  0  0  0  0  0  0  0  0  0
   31.8881  -34.3582   -4.8722 O   0  0  0  0  0  0  0  0  0  0  0  0
   24.0621  -32.7012   -3.4858 O   0  0  0  0  0  0  0  0  0  0  0  0
   25.3202  -33.2837   -3.7030 C   0  0  0  0  0  0  0  0  0  0  0  0
   25.4197  -34.6287   -3.9171 C   0  0  0  0  0  0  0  0  0  0  0  0
   26.6540  -35.2542   -4.1383 C   0  0  0  0  0  0  0  0  0  0  0  0
   27.7939  -34.4886   -4.1392 C   0  0  0  0  0  0  0  0  0  0  0  0
   29.1089  -35.1099   -4.3697 C   0  0  0  0  0  0  0  0  0  0  0  0
   29.9302  -35.2514   -3.1215 C   0  0  2  0  0  0  0  0  0  0  0  0
   31.1733  -35.9642   -3.3838 N   0  0  0  0  0  0  0  0  0  0  0  0
   29.2111  -35.8024   -1.9633 C   0  0  0  0  0  0  0  0  0  0  0  0
   28.9166  -37.0469   -1.9154 O   0  0  0  0  0  0  0  0  0  0  0  0
   27.6951  -33.1424   -3.9251 C   0  0  0  0  0  0  0  0  0  0  0  0
   26.4801  -32.5128   -3.7052 C   0  0  0  0  0  0  0  0  0  0  0  0
   28.8007  -35.0445   -0.8489 N   0  0  0  0  0  0  0  0  0  0  0  0
   27.9498  -35.5440    0.2005 C   0  0  1  0  0  0  0  0  0  0  0  0
   27.9022  -34.5140    1.3076 C   0  0  0  0  0  0  0  0  0  0  0  0
   27.1342  -34.9693    2.5106 C   0  0  0  0  0  0  0  0  0  0  0  0
   27.1340  -33.8270    3.5049 C   0  0  0  0  0  0  0  0  0  0  0  0
   26.4937  -34.2245    4.8158 C   0  0  0  0  0  0  0  0  0  0  0  0
   26.6170  -33.0969    5.7290 N   0  0  0  0  0  0  0  0  0  0  0  0
   26.6247  -35.9747   -0.2408 C   0  0  0  0  0  0  0  0  0  0  0  0
   26.3188  -37.1960   -0.2485 O   0  0  0  0  0  0  0  0  0  0  0  0
   25.6297  -35.1095   -0.6717 O   0  0  0  0  0  0  0  0  0  0  0  0
  2  1  1  6
  2  3  1  0
  4  3  1  0
  5  4  2  0
  6  5  1  0
  7  6  2  0
  7  8  1  0
  8  9  2  0
  9  4  1  0
 10 19  1  0
 10  2  1  0
 11 10  2  0
 13 12  1  0
 14 13  2  0
 15 14  1  0
 16 22  1  0
 16 15  2  0
 17 16  1  0
 18 19  1  0
 18 17  1  6
 20 21  2  0
 20 18  1  0
 22 23  2  0
 23 13  1  0
 24 20  1  0
 25 24  1  0
 25 31  1  0
 25 26  1  1
 27 26  1  0
 28 27  1  0
 28 29  1  0
 29 30  1  0
 31 33  1  0
 32 31  2  0
M  END
$$$$
