FYK.pdb
     RDKit          3D

 33 34  0  0  1  0  0  0  0  0999 V2000
   28.5035  -20.8403  -14.6450 N   0  0  0  0  0  0  0  0  0  0  0  0
   27.6107  -19.8619  -14.0005 C   0  0  1  0  0  0  0  0  0  0  0  0
   26.9196  -19.1460  -15.1336 C   0  0  0  0  0  0  0  0  0  0  0  0
   27.7269  -18.1654  -15.8406 C   0  0  0  0  0  0  0  0  0  0  0  0
   28.3480  -18.5053  -17.0209 C   0  0  0  0  0  0  0  0  0  0  0  0
   29.1228  -17.5932  -17.7249 C   0  0  0  0  0  0  0  0  0  0  0  0
   29.2832  -16.3143  -17.2436 C   0  0  0  0  0  0  0  0  0  0  0  0
   28.6647  -15.9716  -16.0656 C   0  0  0  0  0  0  0  0  0  0  0  0
   27.8912  -16.8941  -15.3697 C   0  0  0  0  0  0  0  0  0  0  0  0
   26.6157  -20.6186  -13.2066 C   0  0  0  0  0  0  0  0  0  0  0  0
   26.2671  -21.7875  -13.5373 O   0  0  0  0  0  0  0  0  0  0  0  0
   29.3540  -20.6693   -6.7197 O   0  0  0  0  0  0  0  0  0  0  0  0
   28.2015  -20.5511   -7.5113 C   0  0  0  0  0  0  0  0  0  0  0  0
   27.9911  -21.4225   -8.5415 C   0  0  0  0  0  0  0  0  0  0  0  0
   26.8553  -21.3432   -9.3585 C   0  0  0  0  0  0  0  0  0  0  0  0
   25.9297  -20.3593   -9.1125 C   0  0  0  0  0  0  0  0  0  0  0  0
   24.7229  -20.2453   -9.9485 C   0  0  0  0  0  0  0  0  0  0  0  0
   24.9112  -20.7651  -11.3439 C   0  0  2  0  0  0  0  0  0  0  0  0
   25.9957  -20.0712  -12.0254 N   0  0  0  0  0  0  0  0  0  0  0  0
   23.6884  -20.8148  -12.1590 C   0  0  0  0  0  0  0  0  0  0  0  0
   23.4338  -19.8867  -13.0027 O   0  0  0  0  0  0  0  0  0  0  0  0
   26.1395  -19.4869   -8.0816 C   0  0  0  0  0  0  0  0  0  0  0  0
   27.2587  -19.5555   -7.2671 C   0  0  0  0  0  0  0  0  0  0  0  0
   22.7291  -21.8441  -12.0903 N   0  0  0  0  0  0  0  0  0  0  0  0
   21.4842  -21.8398  -12.8150 C   0  0  1  0  0  0  0  0  0  0  0  0
   21.3539  -23.1565  -13.5484 C   0  0  0  0  0  0  0  0  0  0  0  0
   20.0830  -23.2774  -14.3323 C   0  0  0  0  0  0  0  0  0  0  0  0
   19.9362  -24.7304  -14.7329 C   0  0  0  0  0  0  0  0  0  0  0  0
   18.7159  -24.9532  -15.5976 C   0  0  0  0  0  0  0  0  0  0  0  0
   18.6314  -26.3781  -15.8859 N   0  0  0  0  0  0  0  0  0  0  0  0
   20.3096  -21.5124  -12.0091 C   0  0  0  0  0  0  0  0  0  0  0  0
   20.3748  -21.5180  -10.7517 O   0  0  0  0  0  0  0  0  0  0  0  0
   19.0714  -21.1805  -12.5391 O   0  0  0  0  0  0  0  0  0  0  0  0
  2  1  1  6
  2  3  1  0
  4  3  1  0
  5  4  2  0
  6  5  1  0
  7  6  2  0
  7  8  1  0
  8  9  2  0
  9  4  1  0
 10 19  1  0
 10  2  1  0
 11 10  2  0
 13 12  1  0
 14 13  2  0
 15 14  1  0
 16 22  1  0
 16 15  2  0
 17 16  1  0
 18 19  1  0
 18 17  1  1
 20 21  2  0
 20 18  1  0
 22 23  2  0
 23 13  1  0
 24 20  1  0
 25 24  1  0
 25 31  1  0
 25 26  1  1
 27 26  1  0
 28 27  1  0
 28 29  1  0
 29 30  1  0
 31 33  1  0
 32 31  2  0
M  END
$$$$
