FYK.pdb
     RDKit          3D

 33 34  0  0  1  0  0  0  0  0999 V2000
   28.6569  -20.9273   -8.7032 N   0  0  0  0  0  0  0  0  0  0  0  0
   27.2067  -20.7761   -8.4940 C   0  0  1  0  0  0  0  0  0  0  0  0
   27.0522  -19.5310   -7.6576 C   0  0  0  0  0  0  0  0  0  0  0  0
   27.5723  -19.6175   -6.3027 C   0  0  0  0  0  0  0  0  0  0  0  0
   28.7015  -18.9136   -5.9512 C   0  0  0  0  0  0  0  0  0  0  0  0
   29.2234  -18.9692   -4.6658 C   0  0  0  0  0  0  0  0  0  0  0  0
   28.6079  -19.7427   -3.7088 C   0  0  0  0  0  0  0  0  0  0  0  0
   27.4805  -20.4468   -4.0563 C   0  0  0  0  0  0  0  0  0  0  0  0
   26.9674  -20.3828   -5.3472 C   0  0  0  0  0  0  0  0  0  0  0  0
   26.5821  -20.5677   -9.8204 C   0  0  0  0  0  0  0  0  0  0  0  0
   26.9413  -19.6159  -10.5704 O   0  0  0  0  0  0  0  0  0  0  0  0
   23.6387  -22.1681  -17.8813 O   0  0  0  0  0  0  0  0  0  0  0  0
   24.0690  -22.2512  -16.5482 C   0  0  0  0  0  0  0  0  0  0  0  0
   23.3226  -22.9377  -15.6336 C   0  0  0  0  0  0  0  0  0  0  0  0
   23.7124  -23.0473  -14.2921 C   0  0  0  0  0  0  0  0  0  0  0  0
   24.8792  -22.4457  -13.8899 C   0  0  0  0  0  0  0  0  0  0  0  0
   25.3223  -22.5405  -12.4888 C   0  0  0  0  0  0  0  0  0  0  0  0
   25.0433  -21.3017  -11.6886 C   0  0  2  0  0  0  0  0  0  0  0  0
   25.5415  -21.4287  -10.3255 N   0  0  0  0  0  0  0  0  0  0  0  0
   23.6484  -20.8383  -11.7263 C   0  0  0  0  0  0  0  0  0  0  0  0
   22.8023  -21.2585  -10.8629 O   0  0  0  0  0  0  0  0  0  0  0  0
   25.6268  -21.7586  -14.8046 C   0  0  0  0  0  0  0  0  0  0  0  0
   25.2516  -21.6433  -16.1339 C   0  0  0  0  0  0  0  0  0  0  0  0
   23.1389  -19.9280  -12.6731 N   0  0  0  0  0  0  0  0  0  0  0  0
   21.7706  -19.4794  -12.7096 C   0  0  1  0  0  0  0  0  0  0  0  0
   21.6323  -18.4584  -13.8174 C   0  0  0  0  0  0  0  0  0  0  0  0
   20.2813  -17.8127  -13.8655 C   0  0  0  0  0  0  0  0  0  0  0  0
   20.3143  -16.7787  -14.9716 C   0  0  0  0  0  0  0  0  0  0  0  0
   18.9935  -16.0543  -15.1017 C   0  0  0  0  0  0  0  0  0  0  0  0
   19.1447  -15.0395  -16.1352 N   0  0  0  0  0  0  0  0  0  0  0  0
   20.7788  -20.5500  -12.7880 C   0  0  0  0  0  0  0  0  0  0  0  0
   19.6792  -20.4488  -12.1830 O   0  0  0  0  0  0  0  0  0  0  0  0
   20.9564  -21.7230  -13.5070 O   0  0  0  0  0  0  0  0  0  0  0  0
  2  1  1  6
  2  3  1  0
  4  3  1  0
  5  4  2  0
  6  5  1  0
  7  6  2  0
  7  8  1  0
  8  9  2  0
  9  4  1  0
 10 19  1  0
 10  2  1  0
 11 10  2  0
 13 12  1  0
 14 13  2  0
 15 14  1  0
 16 22  1  0
 16 15  2  0
 17 16  1  0
 18 19  1  0
 18 17  1  1
 20 21  2  0
 20 18  1  0
 22 23  2  0
 23 13  1  0
 24 20  1  0
 25 24  1  0
 25 31  1  0
 25 26  1  6
 27 26  1  0
 28 27  1  0
 28 29  1  0
 29 30  1  0
 31 33  1  0
 32 31  2  0
M  END
$$$$
