IFK.pdb
     RDKit          3D

 29 29  0  0  1  0  0  0  0  0999 V2000
   26.2937  -19.9101  -20.0771 C   0  0  0  0  0  0  0  0  0  0  0  0
   27.3487  -20.3981  -19.1104 C   0  0  0  0  0  0  0  0  0  0  0  0
   26.7622  -20.7918  -17.7854 C   0  0  2  0  0  0  0  0  0  0  0  0
   26.0008  -19.6075  -17.2331 C   0  0  0  0  0  0  0  0  0  0  0  0
   27.8366  -21.2217  -16.7976 C   0  0  2  0  0  0  0  0  0  0  0  0
   28.4481  -22.4490  -17.2596 N   0  0  0  0  0  0  0  0  0  0  0  0
   27.2751  -21.4420  -15.4585 C   0  0  0  0  0  0  0  0  0  0  0  0
   26.5678  -22.4464  -15.2179 O   0  0  0  0  0  0  0  0  0  0  0  0
   27.4913  -20.5474  -14.3633 N   0  0  0  0  0  0  0  0  0  0  0  0
   26.9024  -20.8082  -13.0611 C   0  0  1  0  0  0  0  0  0  0  0  0
   27.7744  -20.0510  -12.0539 C   0  0  0  0  0  0  0  0  0  0  0  0
   27.2508  -20.1730  -10.6888 C   0  0  0  0  0  0  0  0  0  0  0  0
   27.6145  -21.2137   -9.8604 C   0  0  0  0  0  0  0  0  0  0  0  0
   27.1112  -21.3087   -8.5842 C   0  0  0  0  0  0  0  0  0  0  0  0
   26.2298  -20.3867   -8.0667 C   0  0  0  0  0  0  0  0  0  0  0  0
   25.8537  -19.3386   -8.8791 C   0  0  0  0  0  0  0  0  0  0  0  0
   26.3545  -19.2395  -10.1563 C   0  0  0  0  0  0  0  0  0  0  0  0
   25.5087  -20.3462  -12.9843 C   0  0  0  0  0  0  0  0  0  0  0  0
   25.1205  -19.2097  -13.3623 O   0  0  0  0  0  0  0  0  0  0  0  0
   24.5224  -21.2150  -12.4558 N   0  0  0  0  0  0  0  0  0  0  0  0
   23.1038  -20.8768  -12.4005 C   0  0  1  0  0  0  0  0  0  0  0  0
   22.2493  -21.9570  -12.9404 C   0  0  0  0  0  0  0  0  0  0  0  0
   20.7897  -21.6076  -12.9032 C   0  0  0  0  0  0  0  0  0  0  0  0
   19.9069  -22.6777  -13.4950 C   0  0  0  0  0  0  0  0  0  0  0  0
   18.4614  -22.2957  -13.4898 C   0  0  0  0  0  0  0  0  0  0  0  0
   17.6790  -23.3107  -14.1688 N   0  0  0  0  0  0  0  0  0  0  0  0
   22.7673  -20.5954  -10.9931 C   0  0  0  0  0  0  0  0  0  0  0  0
   23.2019  -21.3487   -9.9054 O   0  0  0  0  0  0  0  0  0  0  0  0
   22.0227  -19.5922  -10.7430 O   0  0  0  0  0  0  0  0  0  0  0  0
  2  1  1  0
  3  2  1  0
  3  4  1  1
  5  3  1  0
  5  6  1  6
  7  8  2  0
  7  5  1  0
  9  7  1  0
 10  9  1  0
 10 11  1  1
 12 17  2  0
 12 11  1  0
 13 12  1  0
 14 15  1  0
 14 13  2  0
 15 16  2  0
 16 17  1  0
 18 20  1  0
 18 10  1  0
 19 18  2  0
 21 20  1  0
 21 27  1  0
 21 22  1  1
 22 23  1  0
 24 23  1  0
 25 26  1  0
 25 24  1  0
 27 28  1  0
 29 27  2  0
M  END
$$$$
