IFK.pdb
     RDKit          3D

 29 29  0  0  1  0  0  0  0  0999 V2000
   20.7979  -13.0248  -22.7572 C   0  0  0  0  0  0  0  0  0  0  0  0
   21.9401  -12.4562  -21.9463 C   0  0  0  0  0  0  0  0  0  0  0  0
   21.4668  -11.8262  -20.6681 C   0  0  2  0  0  0  0  0  0  0  0  0
   20.5641  -10.6642  -21.0178 C   0  0  0  0  0  0  0  0  0  0  0  0
   22.6284  -11.3395  -19.8144 C   0  0  2  0  0  0  0  0  0  0  0  0
   23.5314  -12.4415  -19.5618 N   0  0  0  0  0  0  0  0  0  0  0  0
   22.1603  -10.8012  -18.5306 C   0  0  0  0  0  0  0  0  0  0  0  0
   20.9953  -10.3604  -18.4076 O   0  0  0  0  0  0  0  0  0  0  0  0
   22.9817  -10.7443  -17.3607 N   0  0  0  0  0  0  0  0  0  0  0  0
   22.4663  -10.2043  -16.1143 C   0  0  1  0  0  0  0  0  0  0  0  0
   23.1608  -10.9970  -15.0019 C   0  0  0  0  0  0  0  0  0  0  0  0
   22.7962  -12.4175  -15.0439 C   0  0  0  0  0  0  0  0  0  0  0  0
   23.6742  -13.3809  -15.4940 C   0  0  0  0  0  0  0  0  0  0  0  0
   23.3114  -14.7070  -15.5251 C   0  0  0  0  0  0  0  0  0  0  0  0
   22.0718  -15.1439  -15.1159 C   0  0  0  0  0  0  0  0  0  0  0  0
   21.1796  -14.1962  -14.6624 C   0  0  0  0  0  0  0  0  0  0  0  0
   21.5381  -12.8687  -14.6295 C   0  0  0  0  0  0  0  0  0  0  0  0
   22.7504   -8.7683  -15.9769 C   0  0  0  0  0  0  0  0  0  0  0  0
   23.7135   -8.1829  -16.5380 O   0  0  0  0  0  0  0  0  0  0  0  0
   21.9025   -7.9720  -15.1683 N   0  0  0  0  0  0  0  0  0  0  0  0
   22.0408   -6.5243  -15.0457 C   0  0  1  0  0  0  0  0  0  0  0  0
   21.0341   -5.7959  -15.8483 C   0  0  0  0  0  0  0  0  0  0  0  0
   21.1778   -4.3057  -15.7348 C   0  0  0  0  0  0  0  0  0  0  0  0
   20.1716   -3.5465  -16.5629 C   0  0  0  0  0  0  0  0  0  0  0  0
   20.3591   -2.0657  -16.4767 C   0  0  0  0  0  0  0  0  0  0  0  0
   19.4559   -1.3984  -17.3946 N   0  0  0  0  0  0  0  0  0  0  0  0
   21.9185   -6.1844  -13.6165 C   0  0  0  0  0  0  0  0  0  0  0  0
   22.4855   -5.0641  -13.0140 O   0  0  0  0  0  0  0  0  0  0  0  0
   21.2484   -6.9682  -12.8683 O   0  0  0  0  0  0  0  0  0  0  0  0
  2  1  1  0
  3  2  1  0
  3  4  1  6
  5  3  1  0
  5  6  1  1
  7  8  2  0
  7  5  1  0
  9  7  1  0
 10  9  1  0
 10 11  1  1
 12 17  2  0
 12 11  1  0
 13 12  1  0
 14 15  1  0
 14 13  2  0
 15 16  2  0
 16 17  1  0
 18 20  1  0
 18 10  1  0
 19 18  2  0
 21 20  1  0
 21 27  1  0
 21 22  1  6
 22 23  1  0
 24 23  1  0
 25 26  1  0
 25 24  1  0
 27 28  1  0
 29 27  2  0
M  END
$$$$
