IFK.pdb
     RDKit          3D

 29 29  0  0  1  0  0  0  0  0999 V2000
   29.5353  -17.0107  -17.8003 C   0  0  0  0  0  0  0  0  0  0  0  0
   28.4897  -16.8677  -16.7178 C   0  0  0  0  0  0  0  0  0  0  0  0
   27.8385  -18.1790  -16.3846 C   0  0  2  0  0  0  0  0  0  0  0  0
   27.3097  -18.7851  -17.6654 C   0  0  0  0  0  0  0  0  0  0  0  0
   26.7029  -18.0082  -15.3865 C   0  0  2  0  0  0  0  0  0  0  0  0
   27.2381  -17.5308  -14.1298 N   0  0  0  0  0  0  0  0  0  0  0  0
   25.9985  -19.2760  -15.1552 C   0  0  0  0  0  0  0  0  0  0  0  0
   25.3461  -19.8228  -16.0729 O   0  0  0  0  0  0  0  0  0  0  0  0
   26.0080  -19.9574  -13.8974 N   0  0  0  0  0  0  0  0  0  0  0  0
   25.2266  -21.1660  -13.6991 C   0  0  1  0  0  0  0  0  0  0  0  0
   25.8856  -21.8963  -12.5241 C   0  0  0  0  0  0  0  0  0  0  0  0
   25.6911  -21.1729  -11.2626 C   0  0  0  0  0  0  0  0  0  0  0  0
   24.7063  -21.5277  -10.3649 C   0  0  0  0  0  0  0  0  0  0  0  0
   24.5415  -20.8354   -9.1881 C   0  0  0  0  0  0  0  0  0  0  0  0
   25.3359  -19.7658   -8.8424 C   0  0  0  0  0  0  0  0  0  0  0  0
   26.3264  -19.3953   -9.7265 C   0  0  0  0  0  0  0  0  0  0  0  0
   26.4949  -20.0847  -10.9046 C   0  0  0  0  0  0  0  0  0  0  0  0
   23.8192  -20.8684  -13.3955 C   0  0  0  0  0  0  0  0  0  0  0  0
   23.4386  -19.8835  -12.7096 O   0  0  0  0  0  0  0  0  0  0  0  0
   22.8095  -21.7280  -13.8940 N   0  0  0  0  0  0  0  0  0  0  0  0
   21.3836  -21.4380  -13.7822 C   0  0  1  0  0  0  0  0  0  0  0  0
   20.6044  -22.0226  -14.8955 C   0  0  0  0  0  0  0  0  0  0  0  0
   19.1247  -21.8401  -14.7189 C   0  0  0  0  0  0  0  0  0  0  0  0
   18.3160  -22.3997  -15.8623 C   0  0  0  0  0  0  0  0  0  0  0  0
   16.8457  -22.2043  -15.6739 C   0  0  0  0  0  0  0  0  0  0  0  0
   16.1309  -22.6644  -16.8490 N   0  0  0  0  0  0  0  0  0  0  0  0
   20.9220  -21.9649  -12.4851 C   0  0  0  0  0  0  0  0  0  0  0  0
   20.0889  -21.2840  -11.6009 O   0  0  0  0  0  0  0  0  0  0  0  0
   21.3102  -23.1275  -12.1370 O   0  0  0  0  0  0  0  0  0  0  0  0
  2  1  1  0
  3  2  1  0
  3  4  1  6
  5  3  1  0
  5  6  1  1
  7  8  2  0
  7  5  1  0
  9  7  1  0
 10  9  1  0
 10 11  1  1
 12 17  2  0
 12 11  1  0
 13 12  1  0
 14 15  1  0
 14 13  2  0
 15 16  2  0
 16 17  1  0
 18 20  1  0
 18 10  1  0
 19 18  2  0
 21 20  1  0
 21 27  1  0
 21 22  1  6
 22 23  1  0
 24 23  1  0
 25 26  1  0
 25 24  1  0
 27 28  1  0
 29 27  2  0
M  END
$$$$
