IFK.pdb
     RDKit          3D

 29 29  0  0  1  0  0  0  0  0999 V2000
   27.7816  -15.8274  -16.6991 C   0  0  0  0  0  0  0  0  0  0  0  0
   27.4825  -17.0068  -15.8019 C   0  0  0  0  0  0  0  0  0  0  0  0
   26.0090  -17.1832  -15.5729 C   0  0  2  0  0  0  0  0  0  0  0  0
   25.8145  -17.8575  -14.2332 C   0  0  0  0  0  0  0  0  0  0  0  0
   25.3628  -18.0166  -16.6697 C   0  0  2  0  0  0  0  0  0  0  0  0
   25.5061  -17.3336  -17.9371 N   0  0  0  0  0  0  0  0  0  0  0  0
   23.9352  -18.2365  -16.4038 C   0  0  0  0  0  0  0  0  0  0  0  0
   23.0810  -17.3911  -16.7536 O   0  0  0  0  0  0  0  0  0  0  0  0
   23.4336  -19.4022  -15.7434 N   0  0  0  0  0  0  0  0  0  0  0  0
   22.0045  -19.6413  -15.6376 C   0  0  1  0  0  0  0  0  0  0  0  0
   21.4732  -19.6132  -17.0747 C   0  0  0  0  0  0  0  0  0  0  0  0
   20.0289  -19.8673  -17.1204 C   0  0  0  0  0  0  0  0  0  0  0  0
   19.5189  -21.1303  -17.3359 C   0  0  0  0  0  0  0  0  0  0  0  0
   18.1613  -21.3458  -17.3752 C   0  0  0  0  0  0  0  0  0  0  0  0
   17.2466  -20.3313  -17.2047 C   0  0  0  0  0  0  0  0  0  0  0  0
   17.7364  -19.0612  -16.9879 C   0  0  0  0  0  0  0  0  0  0  0  0
   19.0934  -18.8409  -16.9479 C   0  0  0  0  0  0  0  0  0  0  0  0
   21.7078  -20.9348  -15.0048 C   0  0  0  0  0  0  0  0  0  0  0  0
   22.2245  -22.0275  -15.3573 O   0  0  0  0  0  0  0  0  0  0  0  0
   20.7867  -20.9813  -13.9295 N   0  0  0  0  0  0  0  0  0  0  0  0
   20.3989  -22.2187  -13.2599 C   0  0  1  0  0  0  0  0  0  0  0  0
   19.6978  -21.9676  -11.9818 C   0  0  0  0  0  0  0  0  0  0  0  0
   19.2834  -23.2367  -11.2950 C   0  0  0  0  0  0  0  0  0  0  0  0
   18.5837  -23.0000   -9.9801 C   0  0  0  0  0  0  0  0  0  0  0  0
   18.1768  -24.2732   -9.3102 C   0  0  0  0  0  0  0  0  0  0  0  0
   17.6449  -23.9901   -7.9909 N   0  0  0  0  0  0  0  0  0  0  0  0
   19.5418  -22.9780  -14.1883 C   0  0  0  0  0  0  0  0  0  0  0  0
   19.7528  -24.3028  -14.5627 O   0  0  0  0  0  0  0  0  0  0  0  0
   18.5319  -22.3871  -14.6925 O   0  0  0  0  0  0  0  0  0  0  0  0
  2  1  1  0
  3  2  1  0
  3  4  1  1
  5  3  1  0
  5  6  1  6
  7  8  2  0
  7  5  1  0
  9  7  1  0
 10  9  1  0
 10 11  1  6
 12 17  2  0
 12 11  1  0
 13 12  1  0
 14 15  1  0
 14 13  2  0
 15 16  2  0
 16 17  1  0
 18 20  1  0
 18 10  1  0
 19 18  2  0
 21 20  1  0
 21 27  1  0
 21 22  1  1
 22 23  1  0
 24 23  1  0
 25 26  1  0
 25 24  1  0
 27 28  1  0
 29 27  2  0
M  END
$$$$
