IFK.pdb
     RDKit          3D

 29 29  0  0  1  0  0  0  0  0999 V2000
   18.6313  -13.6227  -21.3969 C   0  0  0  0  0  0  0  0  0  0  0  0
   19.7108  -13.6998  -20.3413 C   0  0  0  0  0  0  0  0  0  0  0  0
   19.5729  -12.6156  -19.3118 C   0  0  2  0  0  0  0  0  0  0  0  0
   19.7175  -11.2802  -20.0069 C   0  0  0  0  0  0  0  0  0  0  0  0
   20.6187  -12.7427  -18.2140 C   0  0  2  0  0  0  0  0  0  0  0  0
   20.5318  -14.0593  -17.6204 N   0  0  0  0  0  0  0  0  0  0  0  0
   20.4209  -11.7321  -17.1669 C   0  0  0  0  0  0  0  0  0  0  0  0
   19.4278  -11.7835  -16.4066 O   0  0  0  0  0  0  0  0  0  0  0  0
   21.3259  -10.6461  -16.9477 N   0  0  0  0  0  0  0  0  0  0  0  0
   21.0314   -9.6180  -15.9644 C   0  0  1  0  0  0  0  0  0  0  0  0
   22.3570   -9.3394  -15.2478 C   0  0  0  0  0  0  0  0  0  0  0  0
   22.2181   -8.2685  -14.2546 C   0  0  0  0  0  0  0  0  0  0  0  0
   21.8515   -8.5286  -12.9509 C   0  0  0  0  0  0  0  0  0  0  0  0
   21.7270   -7.5093  -12.0362 C   0  0  0  0  0  0  0  0  0  0  0  0
   21.9570   -6.1918  -12.3619 C   0  0  0  0  0  0  0  0  0  0  0  0
   22.3246   -5.9109  -13.6604 C   0  0  0  0  0  0  0  0  0  0  0  0
   22.4503   -6.9271  -14.5786 C   0  0  0  0  0  0  0  0  0  0  0  0
   20.5163   -8.3904  -16.5884 C   0  0  0  0  0  0  0  0  0  0  0  0
   20.9921   -7.8781  -17.6354 O   0  0  0  0  0  0  0  0  0  0  0  0
   19.4167   -7.7238  -15.9938 N   0  0  0  0  0  0  0  0  0  0  0  0
   18.8337   -6.5004  -16.5354 C   0  0  1  0  0  0  0  0  0  0  0  0
   17.4144   -6.6764  -16.9137 C   0  0  0  0  0  0  0  0  0  0  0  0
   16.5007   -6.6956  -15.7226 C   0  0  0  0  0  0  0  0  0  0  0  0
   15.5417   -7.8596  -15.7276 C   0  0  0  0  0  0  0  0  0  0  0  0
   14.6299   -7.8559  -14.5427 C   0  0  0  0  0  0  0  0  0  0  0  0
   13.7333   -8.9942  -14.6049 N   0  0  0  0  0  0  0  0  0  0  0  0
   18.9777   -5.4477  -15.5135 C   0  0  0  0  0  0  0  0  0  0  0  0
   19.0687   -4.0844  -15.7830 O   0  0  0  0  0  0  0  0  0  0  0  0
   19.0257   -5.8012  -14.2903 O   0  0  0  0  0  0  0  0  0  0  0  0
  2  1  1  0
  3  2  1  0
  3  4  1  6
  5  3  1  0
  5  6  1  1
  7  8  2  0
  7  5  1  0
  9  7  1  0
 10  9  1  0
 10 11  1  6
 12 17  2  0
 12 11  1  0
 13 12  1  0
 14 15  1  0
 14 13  2  0
 15 16  2  0
 16 17  1  0
 18 20  1  0
 18 10  1  0
 19 18  2  0
 21 20  1  0
 21 27  1  0
 21 22  1  1
 22 23  1  0
 24 23  1  0
 25 26  1  0
 25 24  1  0
 27 28  1  0
 29 27  2  0
M  END
$$$$
