IFK.pdb
     RDKit          3D

 29 29  0  0  1  0  0  0  0  0999 V2000
   27.0128  -20.9705  -20.4418 C   0  0  0  0  0  0  0  0  0  0  0  0
   27.8027  -21.4901  -19.2621 C   0  0  0  0  0  0  0  0  0  0  0  0
   26.9439  -21.6747  -18.0443 C   0  0  2  0  0  0  0  0  0  0  0  0
   26.2806  -20.3531  -17.7268 C   0  0  0  0  0  0  0  0  0  0  0  0
   27.7557  -22.1463  -16.8469 C   0  0  2  0  0  0  0  0  0  0  0  0
   28.2804  -23.4678  -17.1149 N   0  0  0  0  0  0  0  0  0  0  0  0
   26.9350  -22.1955  -15.6299 C   0  0  0  0  0  0  0  0  0  0  0  0
   26.0580  -23.0767  -15.4841 O   0  0  0  0  0  0  0  0  0  0  0  0
   27.0766  -21.2640  -14.5534 N   0  0  0  0  0  0  0  0  0  0  0  0
   26.2193  -21.3424  -13.3831 C   0  0  1  0  0  0  0  0  0  0  0  0
   26.9879  -20.6383  -12.2598 C   0  0  0  0  0  0  0  0  0  0  0  0
   26.2212  -20.6239  -11.0090 C   0  0  0  0  0  0  0  0  0  0  0  0
   26.2424  -21.6866  -10.1304 C   0  0  0  0  0  0  0  0  0  0  0  0
   25.5157  -21.6519   -8.9634 C   0  0  0  0  0  0  0  0  0  0  0  0
   24.7375  -20.5732   -8.6091 C   0  0  0  0  0  0  0  0  0  0  0  0
   24.7029  -19.5005   -9.4742 C   0  0  0  0  0  0  0  0  0  0  0  0
   25.4280  -19.5308  -10.6424 C   0  0  0  0  0  0  0  0  0  0  0  0
   24.9214  -20.6888  -13.6063 C   0  0  0  0  0  0  0  0  0  0  0  0
   24.7870  -19.5339  -14.0895 O   0  0  0  0  0  0  0  0  0  0  0  0
   23.7332  -21.3805  -13.2646 N   0  0  0  0  0  0  0  0  0  0  0  0
   22.3997  -20.8096  -13.4251 C   0  0  1  0  0  0  0  0  0  0  0  0
   21.5788  -21.5684  -14.3938 C   0  0  0  0  0  0  0  0  0  0  0  0
   20.2182  -20.9650  -14.5905 C   0  0  0  0  0  0  0  0  0  0  0  0
   19.3707  -21.7201  -15.5836 C   0  0  0  0  0  0  0  0  0  0  0  0
   18.0572  -21.0535  -15.8400 C   0  0  0  0  0  0  0  0  0  0  0  0
   17.2941  -21.8193  -16.8068 N   0  0  0  0  0  0  0  0  0  0  0  0
   21.7604  -20.7904  -12.0969 C   0  0  0  0  0  0  0  0  0  0  0  0
   21.7782  -21.8473  -11.1901 O   0  0  0  0  0  0  0  0  0  0  0  0
   21.1415  -19.7341  -11.7438 O   0  0  0  0  0  0  0  0  0  0  0  0
  2  1  1  0
  3  2  1  0
  3  4  1  1
  5  3  1  0
  5  6  1  6
  7  8  2  0
  7  5  1  0
  9  7  1  0
 10  9  1  0
 10 11  1  1
 12 17  2  0
 12 11  1  0
 13 12  1  0
 14 15  1  0
 14 13  2  0
 15 16  2  0
 16 17  1  0
 18 20  1  0
 18 10  1  0
 19 18  2  0
 21 20  1  0
 21 27  1  0
 21 22  1  6
 22 23  1  0
 24 23  1  0
 25 26  1  0
 25 24  1  0
 27 28  1  0
 29 27  2  0
M  END
$$$$
