IFK.pdb
     RDKit          3D

 29 29  0  0  1  0  0  0  0  0999 V2000
   28.2536  -21.8853  -19.9476 C   0  0  0  0  0  0  0  0  0  0  0  0
   29.2213  -21.4470  -18.8719 C   0  0  0  0  0  0  0  0  0  0  0  0
   28.8033  -21.9195  -17.5093 C   0  0  2  0  0  0  0  0  0  0  0  0
   28.4508  -23.3873  -17.6037 C   0  0  0  0  0  0  0  0  0  0  0  0
   27.6120  -21.1349  -16.9802 C   0  0  2  0  0  0  0  0  0  0  0  0
   27.8816  -19.7182  -17.0978 N   0  0  0  0  0  0  0  0  0  0  0  0
   27.3429  -21.4551  -15.5723 C   0  0  0  0  0  0  0  0  0  0  0  0
   26.8478  -22.5585  -15.2498 O   0  0  0  0  0  0  0  0  0  0  0  0
   27.6207  -20.5517  -14.4984 N   0  0  0  0  0  0  0  0  0  0  0  0
   27.1477  -20.8267  -13.1526 C   0  0  1  0  0  0  0  0  0  0  0  0
   28.0777  -20.0440  -12.2194 C   0  0  0  0  0  0  0  0  0  0  0  0
   27.6415  -20.1368  -10.8217 C   0  0  0  0  0  0  0  0  0  0  0  0
   26.5648  -19.4182  -10.3463 C   0  0  0  0  0  0  0  0  0  0  0  0
   26.1733  -19.5202   -9.0320 C   0  0  0  0  0  0  0  0  0  0  0  0
   26.8215  -20.3316   -8.1285 C   0  0  0  0  0  0  0  0  0  0  0  0
   27.9005  -21.0584   -8.5842 C   0  0  0  0  0  0  0  0  0  0  0  0
   28.2957  -20.9596   -9.8978 C   0  0  0  0  0  0  0  0  0  0  0  0
   25.7527  -20.4034  -12.9618 C   0  0  0  0  0  0  0  0  0  0  0  0
   25.3221  -19.2512  -13.2306 O   0  0  0  0  0  0  0  0  0  0  0  0
   24.8151  -21.3311  -12.4447 N   0  0  0  0  0  0  0  0  0  0  0  0
   23.3927  -21.0372  -12.3020 C   0  0  1  0  0  0  0  0  0  0  0  0
   22.5452  -22.0051  -13.0321 C   0  0  0  0  0  0  0  0  0  0  0  0
   21.8539  -21.3869  -14.2128 C   0  0  0  0  0  0  0  0  0  0  0  0
   20.9836  -22.3596  -14.9686 C   0  0  0  0  0  0  0  0  0  0  0  0
   20.4312  -21.7747  -16.2288 C   0  0  0  0  0  0  0  0  0  0  0  0
   19.6538  -22.7727  -16.9382 N   0  0  0  0  0  0  0  0  0  0  0  0
   23.0782  -21.0460  -10.8618 C   0  0  0  0  0  0  0  0  0  0  0  0
   22.0070  -20.3747  -10.2774 O   0  0  0  0  0  0  0  0  0  0  0  0
   23.8376  -21.7124  -10.0856 O   0  0  0  0  0  0  0  0  0  0  0  0
  2  1  1  0
  3  2  1  0
  3  4  1  6
  5  3  1  0
  5  6  1  1
  7  8  2  0
  7  5  1  0
  9  7  1  0
 10  9  1  0
 10 11  1  1
 12 17  2  0
 12 11  1  0
 13 12  1  0
 14 15  1  0
 14 13  2  0
 15 16  2  0
 16 17  1  0
 18 20  1  0
 18 10  1  0
 19 18  2  0
 21 20  1  0
 21 27  1  0
 21 22  1  6
 22 23  1  0
 24 23  1  0
 25 26  1  0
 25 24  1  0
 27 28  1  0
 29 27  2  0
M  END
$$$$
