CPI.pdb
     RDKit          3D

 22 22  0  0  1  0  0  0  0  0999 V2000
   12.1135  -16.8867   19.3618 N   0  0  0  0  0  0  0  0  0  0  0  0
   10.9408  -17.2985   20.0562 C   0  0  1  0  0  0  0  0  0  0  0  0
   11.0127  -18.7515   20.5022 C   0  0  0  0  0  0  0  0  0  0  0  0
   11.3133  -19.8519   19.0989 S   0  0  0  0  0  0  0  0  0  0  0  0
   10.5526  -16.4115   21.1798 C   0  0  0  0  0  0  0  0  0  0  0  0
   11.4333  -15.6912   21.7619 O   0  0  0  0  0  0  0  0  0  0  0  0
    9.2235  -16.3075   21.6660 N   0  0  0  0  0  0  0  0  0  0  0  0
    8.1131  -17.0728   21.1680 C   0  0  0  0  0  0  0  0  0  0  0  0
    6.8698  -16.5912   21.8783 C   0  0  0  0  0  0  0  0  0  0  0  0
    7.2516  -15.2515   22.4681 C   0  0  0  0  0  0  0  0  0  0  0  0
    8.7339  -15.4585   22.7050 C   0  0  1  0  0  0  0  0  0  0  0  0
    8.8652  -16.0646   24.0539 C   0  0  0  0  0  0  0  0  0  0  0  0
    9.0504  -17.3074   24.1113 O   0  0  0  0  0  0  0  0  0  0  0  0
   10.4338  -13.5262   29.5600 C   0  0  0  0  0  0  0  0  0  0  0  0
   10.4106  -14.6744   28.6121 C   0  0  0  0  0  0  0  0  0  0  0  0
    9.7468  -14.4569   27.3019 C   0  0  2  0  0  0  0  0  0  0  0  0
    8.5214  -13.5830   27.3972 C   0  0  0  0  0  0  0  0  0  0  0  0
    9.6659  -15.6191   26.4192 C   0  0  2  0  0  0  0  0  0  0  0  0
    8.7919  -15.3151   25.2517 N   0  0  0  0  0  0  0  0  0  0  0  0
    9.2260  -16.8514   27.0655 C   0  0  0  0  0  0  0  0  0  0  0  0
   10.0626  -17.4115   27.8648 O   0  0  0  0  0  0  0  0  0  0  0  0
    8.0149  -17.4699   26.9168 O   0  0  0  0  0  0  0  0  0  0  0  0
  2  1  1  1
  2  5  1  0
  2  3  1  0
  3  4  1  0
  5  6  2  0
  7  5  1  0
  7 11  1  0
  8  7  1  0
  9 10  1  0
  9  8  1  0
 10 11  1  0
 11 12  1  1
 12 19  1  0
 12 13  2  0
 14 15  1  0
 15 16  1  0
 16 17  1  1
 18 16  1  0
 18 19  1  6
 20 18  1  0
 20 22  1  0
 21 20  2  0
M  END
$$$$
