CPI.pdb
     RDKit          3D

 22 22  0  0  1  0  0  0  0  0999 V2000
   12.0526  -17.4237   20.1816 N   0  0  0  0  0  0  0  0  0  0  0  0
   10.6386  -17.4315   20.3481 C   0  0  1  0  0  0  0  0  0  0  0  0
   10.1294  -18.7507   20.9098 C   0  0  0  0  0  0  0  0  0  0  0  0
    9.6943  -18.5924   22.6580 S   0  0  0  0  0  0  0  0  0  0  0  0
   10.1075  -16.2804   21.1180 C   0  0  0  0  0  0  0  0  0  0  0  0
   10.8562  -15.6668   21.9525 O   0  0  0  0  0  0  0  0  0  0  0  0
    8.7787  -15.8008   20.9838 N   0  0  0  0  0  0  0  0  0  0  0  0
    7.8005  -16.3554   20.0882 C   0  0  0  0  0  0  0  0  0  0  0  0
    6.5593  -15.4988   20.1783 C   0  0  0  0  0  0  0  0  0  0  0  0
    7.0206  -14.2101   20.8225 C   0  0  0  0  0  0  0  0  0  0  0  0
    8.1639  -14.7152   21.6792 C   0  0  1  0  0  0  0  0  0  0  0  0
    7.5700  -15.1252   22.9768 C   0  0  0  0  0  0  0  0  0  0  0  0
    7.4986  -16.3584   23.2134 O   0  0  0  0  0  0  0  0  0  0  0  0
    7.1197  -11.6256   28.1684 C   0  0  0  0  0  0  0  0  0  0  0  0
    7.5115  -12.8768   27.4625 C   0  0  0  0  0  0  0  0  0  0  0  0
    7.1283  -12.9955   26.0329 C   0  0  2  0  0  0  0  0  0  0  0  0
    5.7022  -12.5838   25.7664 C   0  0  0  0  0  0  0  0  0  0  0  0
    7.6198  -14.1789   25.3297 C   0  0  2  0  0  0  0  0  0  0  0  0
    7.0916  -14.2027   23.9369 N   0  0  0  0  0  0  0  0  0  0  0  0
    7.3382  -15.4481   25.9928 C   0  0  0  0  0  0  0  0  0  0  0  0
    8.0915  -15.7563   26.9877 O   0  0  0  0  0  0  0  0  0  0  0  0
    6.3527  -16.3413   25.6727 O   0  0  0  0  0  0  0  0  0  0  0  0
  2  1  1  1
  2  5  1  0
  2  3  1  0
  3  4  1  0
  5  6  2  0
  7  5  1  0
  7 11  1  0
  8  7  1  0
  9 10  1  0
  9  8  1  0
 10 11  1  0
 11 12  1  1
 12 19  1  0
 12 13  2  0
 14 15  1  0
 15 16  1  0
 16 17  1  1
 18 16  1  0
 18 19  1  6
 20 18  1  0
 20 22  1  0
 21 20  2  0
M  END
$$$$
