CPI.pdb
     RDKit          3D

 22 22  0  0  1  0  0  0  0  0999 V2000
   10.9259  -17.2416   18.8775 N   0  0  0  0  0  0  0  0  0  0  0  0
    9.7199  -17.0713   19.6149 C   0  0  1  0  0  0  0  0  0  0  0  0
    9.0594  -18.3983   19.9584 C   0  0  0  0  0  0  0  0  0  0  0  0
    8.4485  -19.2283   18.4724 S   0  0  0  0  0  0  0  0  0  0  0  0
    9.8545  -16.2126   20.8168 C   0  0  0  0  0  0  0  0  0  0  0  0
   11.0076  -15.9934   21.3224 O   0  0  0  0  0  0  0  0  0  0  0  0
    8.7500  -15.5987   21.4624 N   0  0  0  0  0  0  0  0  0  0  0  0
    7.3864  -15.7069   21.0201 C   0  0  0  0  0  0  0  0  0  0  0  0
    6.5434  -14.8304   21.9164 C   0  0  0  0  0  0  0  0  0  0  0  0
    7.5283  -13.9033   22.5939 C   0  0  0  0  0  0  0  0  0  0  0  0
    8.7624  -14.7817   22.6339 C   0  0  1  0  0  0  0  0  0  0  0  0
    8.6777  -15.5718   23.8880 C   0  0  0  0  0  0  0  0  0  0  0  0
    8.1650  -16.7180   23.8130 O   0  0  0  0  0  0  0  0  0  0  0  0
    9.8578  -13.7344   29.3167 C   0  0  0  0  0  0  0  0  0  0  0  0
    9.2578  -14.3974   28.1259 C   0  0  0  0  0  0  0  0  0  0  0  0
   10.1400  -15.2896   27.3320 C   0  0  2  0  0  0  0  0  0  0  0  0
   11.4917  -14.6844   27.0473 C   0  0  0  0  0  0  0  0  0  0  0  0
    9.5006  -16.0267   26.2439 C   0  0  2  0  0  0  0  0  0  0  0  0
    9.1412  -15.0962   25.1374 N   0  0  0  0  0  0  0  0  0  0  0  0
    8.3340  -16.8111   26.6362 C   0  0  0  0  0  0  0  0  0  0  0  0
    7.1892  -16.3697   26.2526 O   0  0  0  0  0  0  0  0  0  0  0  0
    8.3300  -17.9703   27.3625 O   0  0  0  0  0  0  0  0  0  0  0  0
  2  1  1  1
  2  5  1  0
  2  3  1  0
  3  4  1  0
  5  6  2  0
  7  5  1  0
  7 11  1  0
  8  7  1  0
  9 10  1  0
  9  8  1  0
 10 11  1  0
 11 12  1  1
 12 19  1  0
 12 13  2  0
 14 15  1  0
 15 16  1  0
 16 17  1  6
 18 16  1  0
 18 19  1  6
 20 18  1  0
 20 22  1  0
 21 20  2  0
M  END
$$$$
