CPI.pdb
     RDKit          3D

 22 22  0  0  1  0  0  0  0  0999 V2000
    6.6136  -19.6452   21.3137 N   0  0  0  0  0  0  0  0  0  0  0  0
    6.4424  -18.5341   22.1873 C   0  0  1  0  0  0  0  0  0  0  0  0
    5.9533  -18.9522   23.5662 C   0  0  0  0  0  0  0  0  0  0  0  0
    5.9838  -17.5603   24.7204 S   0  0  0  0  0  0  0  0  0  0  0  0
    7.6258  -17.6454   22.2850 C   0  0  0  0  0  0  0  0  0  0  0  0
    8.7718  -18.1328   22.5722 O   0  0  0  0  0  0  0  0  0  0  0  0
    7.5661  -16.2435   22.0735 N   0  0  0  0  0  0  0  0  0  0  0  0
    6.3483  -15.4961   21.9155 C   0  0  0  0  0  0  0  0  0  0  0  0
    6.7254  -14.0649   21.6124 C   0  0  0  0  0  0  0  0  0  0  0  0
    8.1749  -14.1258   21.1837 C   0  0  0  0  0  0  0  0  0  0  0  0
    8.6548  -15.3240   21.9774 C   0  0  1  0  0  0  0  0  0  0  0  0
    9.0907  -14.8076   23.2994 C   0  0  0  0  0  0  0  0  0  0  0  0
   10.1999  -14.2166   23.3496 O   0  0  0  0  0  0  0  0  0  0  0  0
    5.7981  -12.3312   27.0339 C   0  0  0  0  0  0  0  0  0  0  0  0
    6.5622  -13.4585   26.4316 C   0  0  0  0  0  0  0  0  0  0  0  0
    7.9991  -13.2230   26.1408 C   0  0  2  0  0  0  0  0  0  0  0  0
    8.2429  -11.9691   25.3393 C   0  0  0  0  0  0  0  0  0  0  0  0
    8.7865  -14.4018   25.7847 C   0  0  2  0  0  0  0  0  0  0  0  0
    8.3237  -14.9511   24.4796 N   0  0  0  0  0  0  0  0  0  0  0  0
    8.8033  -15.4565   26.7933 C   0  0  0  0  0  0  0  0  0  0  0  0
    8.2133  -16.5561   26.4849 O   0  0  0  0  0  0  0  0  0  0  0  0
    9.3868  -15.4019   28.0294 O   0  0  0  0  0  0  0  0  0  0  0  0
  2  1  1  6
  2  5  1  0
  2  3  1  0
  3  4  1  0
  5  6  2  0
  7  5  1  0
  7 11  1  0
  8  7  1  0
  9 10  1  0
  9  8  1  0
 10 11  1  0
 11 12  1  1
 12 19  1  0
 12 13  2  0
 14 15  1  0
 15 16  1  0
 16 17  1  6
 18 16  1  0
 18 19  1  6
 20 18  1  0
 20 22  1  0
 21 20  2  0
M  END
$$$$
