CPI.pdb
     RDKit          3D

 22 22  0  0  1  0  0  0  0  0999 V2000
    6.3467  -19.6844   21.5492 N   0  0  0  0  0  0  0  0  0  0  0  0
    6.1897  -18.3173   21.9144 C   0  0  1  0  0  0  0  0  0  0  0  0
    5.3825  -18.1490   23.1932 C   0  0  0  0  0  0  0  0  0  0  0  0
    6.2851  -18.7869   24.6246 S   0  0  0  0  0  0  0  0  0  0  0  0
    7.4585  -17.5517   21.9767 C   0  0  0  0  0  0  0  0  0  0  0  0
    8.5710  -18.1646   22.1186 O   0  0  0  0  0  0  0  0  0  0  0  0
    7.5192  -16.1369   21.8861 N   0  0  0  0  0  0  0  0  0  0  0  0
    6.3728  -15.2812   21.7438 C   0  0  0  0  0  0  0  0  0  0  0  0
    6.8752  -13.8656   21.5827 C   0  0  0  0  0  0  0  0  0  0  0  0
    8.3344  -14.0094   21.2105 C   0  0  0  0  0  0  0  0  0  0  0  0
    8.6800  -15.3053   21.9157 C   0  0  1  0  0  0  0  0  0  0  0  0
    9.0909  -14.9390   23.2946 C   0  0  0  0  0  0  0  0  0  0  0  0
   10.2089  -14.3795   23.4330 O   0  0  0  0  0  0  0  0  0  0  0  0
    5.4807  -12.6706   26.0823 C   0  0  0  0  0  0  0  0  0  0  0  0
    6.7540  -13.1976   25.5181 C   0  0  0  0  0  0  0  0  0  0  0  0
    7.6188  -13.9925   26.4264 C   0  0  2  0  0  0  0  0  0  0  0  0
    7.9404  -13.2765   27.7141 C   0  0  0  0  0  0  0  0  0  0  0  0
    8.7041  -14.7394   25.7935 C   0  0  2  0  0  0  0  0  0  0  0  0
    8.2912  -15.1892   24.4347 N   0  0  0  0  0  0  0  0  0  0  0  0
    9.2007  -15.8736   26.5661 C   0  0  0  0  0  0  0  0  0  0  0  0
    8.5604  -16.9809   26.4378 O   0  0  0  0  0  0  0  0  0  0  0  0
   10.2799  -15.8856   27.4066 O   0  0  0  0  0  0  0  0  0  0  0  0
  2  1  1  1
  2  5  1  0
  2  3  1  0
  3  4  1  0
  5  6  2  0
  7  5  1  0
  7 11  1  0
  8  7  1  0
  9 10  1  0
  9  8  1  0
 10 11  1  0
 11 12  1  1
 12 19  1  0
 12 13  2  0
 14 15  1  0
 15 16  1  0
 16 17  1  1
 18 16  1  0
 18 19  1  6
 20 18  1  0
 20 22  1  0
 21 20  2  0
M  END
$$$$
