CPI.pdb
     RDKit          3D

 22 22  0  0  1  0  0  0  0  0999 V2000
    6.2698  -19.6625   21.5482 N   0  0  0  0  0  0  0  0  0  0  0  0
    6.2887  -18.4148   22.2338 C   0  0  1  0  0  0  0  0  0  0  0  0
    5.7687  -18.5300   23.6592 C   0  0  0  0  0  0  0  0  0  0  0  0
    5.0439  -20.1591   23.9609 S   0  0  0  0  0  0  0  0  0  0  0  0
    7.5964  -17.7159   22.1951 C   0  0  0  0  0  0  0  0  0  0  0  0
    8.6761  -18.3835   22.0476 O   0  0  0  0  0  0  0  0  0  0  0  0
    7.7304  -16.3083   22.3151 N   0  0  0  0  0  0  0  0  0  0  0  0
    6.6407  -15.4065   22.5715 C   0  0  0  0  0  0  0  0  0  0  0  0
    7.1895  -13.9998   22.5239 C   0  0  0  0  0  0  0  0  0  0  0  0
    8.5191  -14.1236   21.8131 C   0  0  0  0  0  0  0  0  0  0  0  0
    8.9228  -15.5290   22.2106 C   0  0  1  0  0  0  0  0  0  0  0  0
    9.6486  -15.4110   23.5004 C   0  0  0  0  0  0  0  0  0  0  0  0
   10.7580  -14.8186   23.4849 O   0  0  0  0  0  0  0  0  0  0  0  0
    9.6648  -12.9890   28.6506 C   0  0  0  0  0  0  0  0  0  0  0  0
    9.8553  -14.3586   28.0980 C   0  0  0  0  0  0  0  0  0  0  0  0
    9.2684  -14.6373   26.7629 C   0  0  2  0  0  0  0  0  0  0  0  0
    7.7630  -14.5495   26.7483 C   0  0  0  0  0  0  0  0  0  0  0  0
    9.8768  -15.7299   26.0065 C   0  0  2  0  0  0  0  0  0  0  0  0
    9.1517  -15.9277   24.7202 N   0  0  0  0  0  0  0  0  0  0  0  0
    9.9725  -16.9960   26.7261 C   0  0  0  0  0  0  0  0  0  0  0  0
   10.7764  -17.0279   27.7287 O   0  0  0  0  0  0  0  0  0  0  0  0
    9.2917  -18.1504   26.4516 O   0  0  0  0  0  0  0  0  0  0  0  0
  2  1  1  1
  2  5  1  0
  2  3  1  0
  3  4  1  0
  5  6  2  0
  7  5  1  0
  7 11  1  0
  8  7  1  0
  9 10  1  0
  9  8  1  0
 10 11  1  0
 11 12  1  1
 12 19  1  0
 12 13  2  0
 14 15  1  0
 15 16  1  0
 16 17  1  1
 18 16  1  0
 18 19  1  6
 20 18  1  0
 20 22  1  0
 21 20  2  0
M  END
$$$$
