CPI.pdb
     RDKit          3D

 22 22  0  0  1  0  0  0  0  0999 V2000
    5.3946  -18.2161   20.6990 N   0  0  0  0  0  0  0  0  0  0  0  0
    5.7654  -18.0026   22.0570 C   0  0  1  0  0  0  0  0  0  0  0  0
    5.5996  -19.2546   22.9057 C   0  0  0  0  0  0  0  0  0  0  0  0
    6.9352  -20.4345   22.5980 S   0  0  0  0  0  0  0  0  0  0  0  0
    7.1122  -17.4078   22.2365 C   0  0  0  0  0  0  0  0  0  0  0  0
    8.0821  -18.1298   22.6502 O   0  0  0  0  0  0  0  0  0  0  0  0
    7.4028  -16.0446   21.9700 N   0  0  0  0  0  0  0  0  0  0  0  0
    6.4142  -15.0476   21.6611 C   0  0  0  0  0  0  0  0  0  0  0  0
    7.1428  -13.7620   21.3475 C   0  0  0  0  0  0  0  0  0  0  0  0
    8.5705  -14.1797   21.0724 C   0  0  0  0  0  0  0  0  0  0  0  0
    8.6810  -15.4076   21.9535 C   0  0  1  0  0  0  0  0  0  0  0  0
    9.1030  -14.9286   23.2940 C   0  0  0  0  0  0  0  0  0  0  0  0
   10.2784  -14.4953   23.4071 O   0  0  0  0  0  0  0  0  0  0  0  0
    5.8725  -12.3250   27.0290 C   0  0  0  0  0  0  0  0  0  0  0  0
    6.5758  -13.4437   26.3424 C   0  0  0  0  0  0  0  0  0  0  0  0
    8.0540  -13.3506   26.2374 C   0  0  2  0  0  0  0  0  0  0  0  0
    8.5254  -12.0329   25.6755 C   0  0  0  0  0  0  0  0  0  0  0  0
    8.7447  -14.5536   25.7770 C   0  0  2  0  0  0  0  0  0  0  0  0
    8.2529  -14.9402   24.4250 N   0  0  0  0  0  0  0  0  0  0  0  0
    8.6622  -15.6940   26.6840 C   0  0  0  0  0  0  0  0  0  0  0  0
    9.2198  -15.5554   27.8338 O   0  0  0  0  0  0  0  0  0  0  0  0
    8.0477  -16.8922   26.4432 O   0  0  0  0  0  0  0  0  0  0  0  0
  2  1  1  6
  2  5  1  0
  2  3  1  0
  3  4  1  0
  5  6  2  0
  7  5  1  0
  7 11  1  0
  8  7  1  0
  9 10  1  0
  9  8  1  0
 10 11  1  0
 11 12  1  1
 12 19  1  0
 12 13  2  0
 14 15  1  0
 15 16  1  0
 16 17  1  6
 18 16  1  0
 18 19  1  6
 20 18  1  0
 20 22  1  0
 21 20  2  0
M  END
$$$$
