CPI.pdb
     RDKit          3D

 22 22  0  0  1  0  0  0  0  0999 V2000
    6.6744  -18.7578   19.9763 N   0  0  0  0  0  0  0  0  0  0  0  0
    6.4064  -17.5462   20.6745 C   0  0  1  0  0  0  0  0  0  0  0  0
    5.4547  -17.7507   21.8439 C   0  0  0  0  0  0  0  0  0  0  0  0
    6.0946  -18.9863   22.9991 S   0  0  0  0  0  0  0  0  0  0  0  0
    7.6186  -16.8015   21.0937 C   0  0  0  0  0  0  0  0  0  0  0  0
    8.7216  -17.4212   21.2740 O   0  0  0  0  0  0  0  0  0  0  0  0
    7.6333  -15.3998   21.3148 N   0  0  0  0  0  0  0  0  0  0  0  0
    6.4745  -14.5524   21.2396 C   0  0  0  0  0  0  0  0  0  0  0  0
    6.9354  -13.1276   21.4387 C   0  0  0  0  0  0  0  0  0  0  0  0
    8.4286  -13.1635   21.1994 C   0  0  0  0  0  0  0  0  0  0  0  0
    8.7527  -14.5757   21.6432 C   0  0  1  0  0  0  0  0  0  0  0  0
    9.0108  -14.5104   23.1039 C   0  0  0  0  0  0  0  0  0  0  0  0
    9.9245  -13.7386   23.4933 O   0  0  0  0  0  0  0  0  0  0  0  0
    5.5930  -12.4723   26.2941 C   0  0  0  0  0  0  0  0  0  0  0  0
    6.2739  -13.6822   25.7555 C   0  0  0  0  0  0  0  0  0  0  0  0
    7.7562  -13.7159   25.8346 C   0  0  2  0  0  0  0  0  0  0  0  0
    8.4068  -12.4722   25.2830 C   0  0  0  0  0  0  0  0  0  0  0  0
    8.3900  -14.9937   25.5153 C   0  0  2  0  0  0  0  0  0  0  0  0
    8.2849  -15.2661   24.0545 N   0  0  0  0  0  0  0  0  0  0  0  0
    7.8876  -16.1347   26.2740 C   0  0  0  0  0  0  0  0  0  0  0  0
    7.0848  -16.9267   25.6570 O   0  0  0  0  0  0  0  0  0  0  0  0
    8.1864  -16.4552   27.5699 O   0  0  0  0  0  0  0  0  0  0  0  0
  2  1  1  1
  2  5  1  0
  2  3  1  0
  3  4  1  0
  5  6  2  0
  7  5  1  0
  7 11  1  0
  8  7  1  0
  9 10  1  0
  9  8  1  0
 10 11  1  0
 11 12  1  1
 12 19  1  0
 12 13  2  0
 14 15  1  0
 15 16  1  0
 16 17  1  6
 18 16  1  0
 18 19  1  6
 20 18  1  0
 20 22  1  0
 21 20  2  0
M  END
$$$$
