CPI.pdb
     RDKit          3D

 22 22  0  0  1  0  0  0  0  0999 V2000
    7.1295  -19.5154   20.6376 N   0  0  0  0  0  0  0  0  0  0  0  0
    6.8048  -18.3007   21.3056 C   0  0  1  0  0  0  0  0  0  0  0  0
    6.1190  -18.5409   22.6424 C   0  0  0  0  0  0  0  0  0  0  0  0
    4.6721  -19.6090   22.4521 S   0  0  0  0  0  0  0  0  0  0  0  0
    7.9416  -17.3587   21.4479 C   0  0  0  0  0  0  0  0  0  0  0  0
    9.1279  -17.8054   21.6108 O   0  0  0  0  0  0  0  0  0  0  0  0
    7.7925  -15.9480   21.4140 N   0  0  0  0  0  0  0  0  0  0  0  0
    6.5343  -15.2663   21.2760 C   0  0  0  0  0  0  0  0  0  0  0  0
    6.8231  -13.7864   21.1829 C   0  0  0  0  0  0  0  0  0  0  0  0
    8.2944  -13.6966   20.8426 C   0  0  0  0  0  0  0  0  0  0  0  0
    8.8156  -14.9556   21.5054 C   0  0  1  0  0  0  0  0  0  0  0  0
    9.1405  -14.5910   22.9075 C   0  0  0  0  0  0  0  0  0  0  0  0
   10.1577  -13.8755   23.0956 O   0  0  0  0  0  0  0  0  0  0  0  0
    6.5492  -11.7319   27.2543 C   0  0  0  0  0  0  0  0  0  0  0  0
    7.6445  -12.6823   26.9157 C   0  0  0  0  0  0  0  0  0  0  0  0
    7.4892  -13.4784   25.6720 C   0  0  2  0  0  0  0  0  0  0  0  0
    6.0765  -13.9562   25.4478 C   0  0  0  0  0  0  0  0  0  0  0  0
    8.5643  -14.4220   25.3720 C   0  0  2  0  0  0  0  0  0  0  0  0
    8.3673  -15.0080   24.0166 N   0  0  0  0  0  0  0  0  0  0  0  0
    8.7399  -15.4856   26.3558 C   0  0  0  0  0  0  0  0  0  0  0  0
    9.2195  -15.1394   27.4971 O   0  0  0  0  0  0  0  0  0  0  0  0
    8.4413  -16.8108   26.1949 O   0  0  0  0  0  0  0  0  0  0  0  0
  2  1  1  1
  2  5  1  0
  2  3  1  0
  3  4  1  0
  5  6  2  0
  7  5  1  0
  7 11  1  0
  8  7  1  0
  9 10  1  0
  9  8  1  0
 10 11  1  0
 11 12  1  1
 12 19  1  0
 12 13  2  0
 14 15  1  0
 15 16  1  0
 16 17  1  1
 18 16  1  0
 18 19  1  6
 20 18  1  0
 20 22  1  0
 21 20  2  0
M  END
$$$$
