CPI.pdb
     RDKit          3D

 22 22  0  0  1  0  0  0  0  0999 V2000
    6.2164  -19.0706   20.7146 N   0  0  0  0  0  0  0  0  0  0  0  0
    6.1211  -17.8162   21.3813 C   0  0  1  0  0  0  0  0  0  0  0  0
    5.4092  -17.9260   22.7215 C   0  0  0  0  0  0  0  0  0  0  0  0
    4.1549  -19.2284   22.6907 S   0  0  0  0  0  0  0  0  0  0  0  0
    7.4109  -17.0966   21.5168 C   0  0  0  0  0  0  0  0  0  0  0  0
    8.5036  -17.7520   21.6159 O   0  0  0  0  0  0  0  0  0  0  0  0
    7.5135  -15.6815   21.5445 N   0  0  0  0  0  0  0  0  0  0  0  0
    6.3934  -14.7833   21.4718 C   0  0  0  0  0  0  0  0  0  0  0  0
    6.9379  -13.3747   21.4302 C   0  0  0  0  0  0  0  0  0  0  0  0
    8.3938  -13.5303   21.0501 C   0  0  0  0  0  0  0  0  0  0  0  0
    8.6982  -14.8901   21.6455 C   0  0  1  0  0  0  0  0  0  0  0  0
    9.1137  -14.6521   23.0509 C   0  0  0  0  0  0  0  0  0  0  0  0
   10.2449  -14.1347   23.2372 O   0  0  0  0  0  0  0  0  0  0  0  0
    6.2215  -11.9664   26.0350 C   0  0  0  0  0  0  0  0  0  0  0  0
    7.2834  -12.7963   25.4016 C   0  0  0  0  0  0  0  0  0  0  0  0
    7.9457  -13.8147   26.2554 C   0  0  2  0  0  0  0  0  0  0  0  0
    8.4789  -13.2477   27.5471 C   0  0  0  0  0  0  0  0  0  0  0  0
    8.7851  -14.7900   25.5623 C   0  0  2  0  0  0  0  0  0  0  0  0
    8.3043  -14.9775   24.1648 N   0  0  0  0  0  0  0  0  0  0  0  0
    8.9016  -16.0832   26.2286 C   0  0  0  0  0  0  0  0  0  0  0  0
    9.5563  -16.1030   27.3346 O   0  0  0  0  0  0  0  0  0  0  0  0
    8.3814  -17.2754   25.8049 O   0  0  0  0  0  0  0  0  0  0  0  0
  2  1  1  1
  2  5  1  0
  2  3  1  0
  3  4  1  0
  5  6  2  0
  7  5  1  0
  7 11  1  0
  8  7  1  0
  9 10  1  0
  9  8  1  0
 10 11  1  0
 11 12  1  1
 12 19  1  0
 12 13  2  0
 14 15  1  0
 15 16  1  0
 16 17  1  1
 18 16  1  0
 18 19  1  6
 20 18  1  0
 20 22  1  0
 21 20  2  0
M  END
$$$$
