PRF.pdb
     RDKit          3D

 30 31  0  0  1  0  0  0  0  0999 V2000
   28.3163  -17.7813  -14.5677 N   0  0  0  0  0  0  0  0  0  0  0  0
   28.5481  -17.7551  -16.0007 C   0  0  0  0  0  0  0  0  0  0  0  0
   27.5692  -16.7324  -16.5465 C   0  0  0  0  0  0  0  0  0  0  0  0
   26.3805  -16.8975  -15.6271 C   0  0  0  0  0  0  0  0  0  0  0  0
   26.9685  -17.3571  -14.3546 C   0  0  1  0  0  0  0  0  0  0  0  0
   26.1877  -18.3951  -13.6515 C   0  0  0  0  0  0  0  0  0  0  0  0
   24.9478  -18.2183  -13.5544 O   0  0  0  0  0  0  0  0  0  0  0  0
   22.8714  -23.3375  -14.9460 N   0  0  0  0  0  0  0  0  0  0  0  0
   22.8320  -24.4686  -14.0923 C   0  0  0  0  0  0  0  0  0  0  0  0
   21.7249  -25.0959  -13.9045 N   0  0  0  0  0  0  0  0  0  0  0  0
   23.9963  -24.9494  -13.4164 N   0  0  0  0  0  0  0  0  0  0  0  0
   25.2561  -24.2531  -13.4629 C   0  0  0  0  0  0  0  0  0  0  0  0
   25.2119  -22.9678  -12.6492 C   0  0  0  0  0  0  0  0  0  0  0  0
   26.0184  -21.8771  -13.3012 C   0  0  0  0  0  0  0  0  0  0  0  0
   25.9513  -20.5853  -12.4738 C   0  0  2  0  0  0  0  0  0  0  0  0
   26.7837  -19.5622  -13.0945 N   0  0  0  0  0  0  0  0  0  0  0  0
   26.6251  -20.9457  -11.1764 C   0  0  0  0  0  0  0  0  0  0  0  0
   27.8659  -21.1659  -11.1149 O   0  0  0  0  0  0  0  0  0  0  0  0
   21.6367  -25.9278  -13.3094 N   0  0  0  0  0  0  0  0  0  0  0  0
   25.9257  -21.0591   -9.9630 C   0  0  2  0  0  0  0  0  0  0  0  0
   26.5698  -21.0026   -8.7084 C   0  0  0  0  0  0  0  0  0  0  0  0
   27.3769  -19.7850   -8.4178 C   0  0  0  0  0  0  0  0  0  0  0  0
   28.0205  -19.7887   -7.0631 C   0  0  0  0  0  0  0  0  0  0  0  0
   29.1942  -20.4827   -6.8407 C   0  0  0  0  0  0  0  0  0  0  0  0
   29.7572  -20.4740   -5.5870 C   0  0  0  0  0  0  0  0  0  0  0  0
   29.1960  -19.7934   -4.5228 C   0  0  0  0  0  0  0  0  0  0  0  0
   28.0319  -19.1020   -4.7332 C   0  0  0  0  0  0  0  0  0  0  0  0
   27.4720  -19.1156   -5.9956 C   0  0  0  0  0  0  0  0  0  0  0  0
   25.5860  -21.2002   -7.6238 O   0  0  0  0  0  0  0  0  0  0  0  0
   25.8870  -21.9019   -6.4463 O   0  0  0  0  0  0  0  0  0  0  0  0
  1  2  1  0
  3  2  1  0
  4  5  1  0
  4  3  1  0
  5  1  1  0
  6 16  1  0
  5  6  1  6
  7  6  2  0
  9 10  2  0
  9  8  1  0
 11  9  1  0
 12 11  1  0
 12 13  1  0
 14 13  1  0
 15 14  1  6
 15 16  1  0
 17 19  1  0
 17 15  1  0
 18 17  2  0
 20 19  1  0
 20 28  1  0
 21 22  1  0
 20 21  1  6
 22 27  1  0
 23 22  2  0
 23 24  1  0
 24 25  2  0
 25 26  1  0
 27 26  2  0
 28 29  1  0
 30 28  2  0
M  END
$$$$
