PRF.pdb
     RDKit          3D

 30 31  0  0  1  0  0  0  0  0999 V2000
   28.7214  -18.0370  -16.9797 N   0  0  0  0  0  0  0  0  0  0  0  0
   29.5794  -17.8377  -18.1339 C   0  0  0  0  0  0  0  0  0  0  0  0
   28.9206  -16.7316  -18.9368 C   0  0  0  0  0  0  0  0  0  0  0  0
   27.4504  -16.9816  -18.6889 C   0  0  0  0  0  0  0  0  0  0  0  0
   27.4103  -17.6104  -17.3550 C   0  0  1  0  0  0  0  0  0  0  0  0
   26.4326  -18.7090  -17.2182 C   0  0  0  0  0  0  0  0  0  0  0  0
   25.2254  -18.4382  -17.4361 O   0  0  0  0  0  0  0  0  0  0  0  0
   24.1709  -25.2267  -14.3532 N   0  0  0  0  0  0  0  0  0  0  0  0
   24.1424  -26.0397  -15.5142 C   0  0  0  0  0  0  0  0  0  0  0  0
   23.1710  -26.8615  -15.7018 N   0  0  0  0  0  0  0  0  0  0  0  0
   25.1716  -25.9833  -16.5047 N   0  0  0  0  0  0  0  0  0  0  0  0
   26.1445  -24.9221  -16.5445 C   0  0  0  0  0  0  0  0  0  0  0  0
   25.4762  -23.5553  -16.5784 C   0  0  0  0  0  0  0  0  0  0  0  0
   26.4810  -22.4583  -16.8062 C   0  0  0  0  0  0  0  0  0  0  0  0
   25.8000  -21.0826  -16.7650 C   0  0  2  0  0  0  0  0  0  0  0  0
   26.8083  -20.0339  -16.8560 N   0  0  0  0  0  0  0  0  0  0  0  0
   25.2292  -20.9979  -15.3742 C   0  0  0  0  0  0  0  0  0  0  0  0
   25.9694  -21.0310  -14.3529 O   0  0  0  0  0  0  0  0  0  0  0  0
   23.0352  -27.3928  -16.5696 N   0  0  0  0  0  0  0  0  0  0  0  0
   23.8517  -20.8775  -15.1243 C   0  0  2  0  0  0  0  0  0  0  0  0
   23.3231  -20.7862  -13.8189 C   0  0  0  0  0  0  0  0  0  0  0  0
   23.1213  -19.4180  -13.2661 C   0  0  0  0  0  0  0  0  0  0  0  0
   22.4513  -19.3947  -11.9245 C   0  0  0  0  0  0  0  0  0  0  0  0
   23.1765  -19.6132  -10.7691 C   0  0  0  0  0  0  0  0  0  0  0  0
   22.5342  -19.5931   -9.5542 C   0  0  0  0  0  0  0  0  0  0  0  0
   21.1769  -19.3611   -9.4326 C   0  0  0  0  0  0  0  0  0  0  0  0
   20.4489  -19.1432  -10.5728 C   0  0  0  0  0  0  0  0  0  0  0  0
   21.1012  -19.1652  -11.7898 C   0  0  0  0  0  0  0  0  0  0  0  0
   22.0517  -21.5342  -13.7331 O   0  0  0  0  0  0  0  0  0  0  0  0
   21.6859  -22.2795  -12.6017 O   0  0  0  0  0  0  0  0  0  0  0  0
  1  2  1  0
  3  2  1  0
  4  5  1  0
  4  3  1  0
  5  1  1  0
  6 16  1  0
  5  6  1  6
  7  6  2  0
  9 10  2  0
  9  8  1  0
 11  9  1  0
 12 11  1  0
 12 13  1  0
 14 13  1  0
 15 14  1  1
 15 16  1  0
 17 19  1  0
 17 15  1  0
 18 17  2  0
 20 19  1  0
 20 28  1  0
 21 22  1  0
 20 21  1  6
 22 27  1  0
 23 22  2  0
 23 24  1  0
 24 25  2  0
 25 26  1  0
 27 26  2  0
 28 29  1  0
 30 28  2  0
M  END
$$$$
