PRF.pdb
     RDKit          3D

 30 31  0  0  1  0  0  0  0  0999 V2000
   23.2530  -18.8885  -15.3251 N   0  0  0  0  0  0  0  0  0  0  0  0
   23.7037  -17.6050  -15.8326 C   0  0  0  0  0  0  0  0  0  0  0  0
   23.3256  -17.5998  -17.3020 C   0  0  0  0  0  0  0  0  0  0  0  0
   23.4893  -19.0531  -17.6847 C   0  0  0  0  0  0  0  0  0  0  0  0
   23.2219  -19.7888  -16.4343 C   0  0  1  0  0  0  0  0  0  0  0  0
   24.1010  -20.9526  -16.2013 C   0  0  0  0  0  0  0  0  0  0  0  0
   23.6195  -22.0925  -16.4173 O   0  0  0  0  0  0  0  0  0  0  0  0
   31.4327  -25.1535  -15.4071 N   0  0  0  0  0  0  0  0  0  0  0  0
   31.0156  -25.0165  -16.7550 C   0  0  0  0  0  0  0  0  0  0  0  0
   31.1966  -25.9808  -17.5867 N   0  0  0  0  0  0  0  0  0  0  0  0
   30.3904  -23.8251  -17.2379 N   0  0  0  0  0  0  0  0  0  0  0  0
   29.9497  -22.7752  -16.3561 C   0  0  0  0  0  0  0  0  0  0  0  0
   28.5235  -23.0104  -15.8798 C   0  0  0  0  0  0  0  0  0  0  0  0
   27.6605  -21.7994  -16.1116 C   0  0  0  0  0  0  0  0  0  0  0  0
   26.2586  -22.0123  -15.5221 C   0  0  2  0  0  0  0  0  0  0  0  0
   25.4456  -20.8242  -15.7504 N   0  0  0  0  0  0  0  0  0  0  0  0
   26.4928  -22.0828  -14.0364 C   0  0  0  0  0  0  0  0  0  0  0  0
   27.0648  -23.0732  -13.5037 O   0  0  0  0  0  0  0  0  0  0  0  0
   30.9480  -25.9280  -18.5814 N   0  0  0  0  0  0  0  0  0  0  0  0
   26.0952  -21.0628  -13.1554 C   0  0  1  0  0  0  0  0  0  0  0  0
   26.3885  -21.0960  -11.7753 C   0  0  0  0  0  0  0  0  0  0  0  0
   27.3497  -20.0795  -11.2644 C   0  0  0  0  0  0  0  0  0  0  0  0
   27.5810  -20.1482   -9.7842 C   0  0  0  0  0  0  0  0  0  0  0  0
   26.7753  -19.4443   -8.9101 C   0  0  0  0  0  0  0  0  0  0  0  0
   27.0156  -19.5207   -7.5590 C   0  0  0  0  0  0  0  0  0  0  0  0
   28.0405  -20.2800   -7.0262 C   0  0  0  0  0  0  0  0  0  0  0  0
   28.8451  -20.9819   -7.8849 C   0  0  0  0  0  0  0  0  0  0  0  0
   28.5976  -20.9000   -9.2411 C   0  0  0  0  0  0  0  0  0  0  0  0
   25.1396  -21.0177  -10.9894 O   0  0  0  0  0  0  0  0  0  0  0  0
   24.9970  -21.6222   -9.7310 O   0  0  0  0  0  0  0  0  0  0  0  0
  1  2  1  0
  3  2  1  0
  4  5  1  0
  4  3  1  0
  5  1  1  0
  6 16  1  0
  5  6  1  1
  7  6  2  0
  9 10  2  0
  9  8  1  0
 11  9  1  0
 12 11  1  0
 12 13  1  0
 14 13  1  0
 15 14  1  6
 15 16  1  0
 17 19  1  0
 17 15  1  0
 18 17  2  0
 20 19  1  0
 20 28  1  0
 21 22  1  0
 20 21  1  1
 22 27  1  0
 23 22  2  0
 23 24  1  0
 24 25  2  0
 25 26  1  0
 27 26  2  0
 28 29  1  0
 30 28  2  0
M  END
$$$$
