PRF.pdb
     RDKit          3D

 30 31  0  0  1  0  0  0  0  0999 V2000
   24.0635  -16.4112  -19.3707 N   0  0  0  0  0  0  0  0  0  0  0  0
   24.9909  -16.2494  -20.4761 C   0  0  0  0  0  0  0  0  0  0  0  0
   24.2246  -16.6889  -21.7098 C   0  0  0  0  0  0  0  0  0  0  0  0
   23.3397  -17.7883  -21.1681 C   0  0  0  0  0  0  0  0  0  0  0  0
   23.1252  -17.4176  -19.7564 C   0  0  1  0  0  0  0  0  0  0  0  0
   23.1403  -18.5514  -18.8099 C   0  0  0  0  0  0  0  0  0  0  0  0
   22.1333  -19.3022  -18.7922 O   0  0  0  0  0  0  0  0  0  0  0  0
   29.0746  -22.0857  -15.2478 N   0  0  0  0  0  0  0  0  0  0  0  0
   28.7079  -22.6918  -16.4758 C   0  0  0  0  0  0  0  0  0  0  0  0
   28.7849  -23.9684  -16.6127 N   0  0  0  0  0  0  0  0  0  0  0  0
   28.2480  -21.9258  -17.5919 N   0  0  0  0  0  0  0  0  0  0  0  0
   28.0481  -20.5015  -17.5181 C   0  0  0  0  0  0  0  0  0  0  0  0
   26.6178  -20.1211  -17.8724 C   0  0  0  0  0  0  0  0  0  0  0  0
   25.6833  -20.3622  -16.7175 C   0  0  0  0  0  0  0  0  0  0  0  0
   24.2402  -20.0091  -17.1055 C   0  0  2  0  0  0  0  0  0  0  0  0
   24.2355  -18.8127  -17.9384 N   0  0  0  0  0  0  0  0  0  0  0  0
   23.5960  -19.6169  -15.8023 C   0  0  0  0  0  0  0  0  0  0  0  0
   23.9454  -18.5770  -15.1789 O   0  0  0  0  0  0  0  0  0  0  0  0
   28.5939  -24.4582  -17.4945 N   0  0  0  0  0  0  0  0  0  0  0  0
   22.5754  -20.3731  -15.2014 C   0  0  1  0  0  0  0  0  0  0  0  0
   21.9334  -19.9697  -14.0110 C   0  0  0  0  0  0  0  0  0  0  0  0
   21.3210  -18.6121  -14.0006 C   0  0  0  0  0  0  0  0  0  0  0  0
   20.2205  -18.4315  -15.0034 C   0  0  0  0  0  0  0  0  0  0  0  0
   18.9401  -18.8753  -14.7343 C   0  0  0  0  0  0  0  0  0  0  0  0
   17.9533  -18.7026  -15.6753 C   0  0  0  0  0  0  0  0  0  0  0  0
   18.1854  -18.0968  -16.8959 C   0  0  0  0  0  0  0  0  0  0  0  0
   19.4521  -17.6532  -17.1723 C   0  0  0  0  0  0  0  0  0  0  0  0
   20.4383  -17.8305  -16.2219 C   0  0  0  0  0  0  0  0  0  0  0  0
   20.9109  -20.9638  -13.6243 O   0  0  0  0  0  0  0  0  0  0  0  0
   20.7322  -22.1739  -14.3120 O   0  0  0  0  0  0  0  0  0  0  0  0
  1  2  1  0
  3  2  1  0
  4  5  1  0
  4  3  1  0
  5  1  1  0
  6 16  1  0
  5  6  1  1
  7  6  2  0
  9 10  2  0
  9  8  1  0
 11  9  1  0
 12 11  1  0
 12 13  1  0
 14 13  1  0
 15 14  1  1
 15 16  1  0
 17 19  1  0
 17 15  1  0
 18 17  2  0
 20 19  1  0
 20 28  1  0
 21 22  1  0
 20 21  1  1
 22 27  1  0
 23 22  2  0
 23 24  1  0
 24 25  2  0
 25 26  1  0
 27 26  2  0
 28 29  1  0
 30 28  2  0
M  END
$$$$
