ALD.pdb
     RDKit          3D

 22 21  0  0  1  0  0  0  0  0999 V2000
   27.3361  -22.5677  -14.7503 C   0  0  0  0  0  0  0  0  0  0  0  0
   26.5199  -21.3854  -14.2786 C   0  0  2  0  0  0  0  0  0  0  0  0
   27.3270  -20.1561  -14.3158 N   0  0  0  0  0  0  0  0  0  0  0  0
   26.0658  -21.5811  -12.8870 C   0  0  0  0  0  0  0  0  0  0  0  0
   25.4578  -22.6329  -12.5722 O   0  0  0  0  0  0  0  0  0  0  0  0
   26.2127  -21.2375   -7.4609 C   0  0  0  0  0  0  0  0  0  0  0  0
   25.8517  -19.9369   -8.1983 C   0  0  1  0  0  0  0  0  0  0  0  0
   26.5322  -18.8154   -7.4041 C   0  0  0  0  0  0  0  0  0  0  0  0
   26.5327  -19.9527   -9.5360 C   0  0  0  0  0  0  0  0  0  0  0  0
   25.7838  -20.7015  -10.5354 C   0  0  2  0  0  0  0  0  0  0  0  0
   26.2884  -20.6269  -11.8870 N   0  0  0  0  0  0  0  0  0  0  0  0
   24.3772  -20.2216  -10.6048 C   0  0  0  0  0  0  0  0  0  0  0  0
   23.9907  -19.1850  -11.1930 O   0  0  0  0  0  0  0  0  0  0  0  0
   23.3242  -20.9650   -9.9636 N   0  0  0  0  0  0  0  0  0  0  0  0
   21.9378  -20.7430  -10.3616 C   0  0  1  0  0  0  0  0  0  0  0  0
   21.8519  -21.1644  -11.7963 C   0  0  0  0  0  0  0  0  0  0  0  0
   20.5330  -21.0596  -12.4153 C   0  0  0  0  0  0  0  0  0  0  0  0
   19.6086  -20.5734  -11.6994 O   0  0  0  0  0  0  0  0  0  0  0  0
   21.0403  -21.5514   -9.4914 C   0  0  0  0  0  0  0  0  0  0  0  0
   21.6379  -22.3016   -8.4777 O   0  0  0  0  0  0  0  0  0  0  0  0
   20.1750  -21.4287  -13.6882 O   0  0  0  0  0  0  0  0  0  0  0  0
   19.8024  -21.5961   -9.6141 O   0  0  0  0  0  0  0  0  0  0  0  0
  2  1  1  1
  2  4  1  0
  2  3  1  0
  4  5  2  0
  7  6  1  1
  7  9  1  0
  8  7  1  0
 10  9  1  1
 10 11  1  0
 10 12  1  0
 11  4  1  0
 12 14  1  0
 13 12  2  0
 14 15  1  0
 15 19  1  0
 16 17  1  0
 15 16  1  6
 17 18  2  0
 19 22  2  0
 19 20  1  0
 21 17  1  0
M  END
$$$$
