ALD.pdb
     RDKit          3D

 22 21  0  0  1  0  0  0  0  0999 V2000
   24.5914  -13.3449  -19.9078 C   0  0  0  0  0  0  0  0  0  0  0  0
   24.1921  -11.9101  -19.6459 C   0  0  2  0  0  0  0  0  0  0  0  0
   25.0204  -10.9924  -20.4432 N   0  0  0  0  0  0  0  0  0  0  0  0
   24.3812  -11.5626  -18.2230 C   0  0  0  0  0  0  0  0  0  0  0  0
   23.7415  -12.1836  -17.3397 O   0  0  0  0  0  0  0  0  0  0  0  0
   29.2924  -10.9318  -16.8317 C   0  0  0  0  0  0  0  0  0  0  0  0
   27.8105  -11.3357  -16.7520 C   0  0  1  0  0  0  0  0  0  0  0  0
   27.7484  -12.4544  -15.7050 C   0  0  0  0  0  0  0  0  0  0  0  0
   27.0437  -10.1886  -16.1606 C   0  0  0  0  0  0  0  0  0  0  0  0
   25.6169  -10.2668  -16.4406 C   0  0  2  0  0  0  0  0  0  0  0  0
   25.2588  -10.5527  -17.8106 N   0  0  0  0  0  0  0  0  0  0  0  0
   24.9465   -8.9802  -16.1104 C   0  0  0  0  0  0  0  0  0  0  0  0
   25.0080   -8.3906  -15.0066 O   0  0  0  0  0  0  0  0  0  0  0  0
   24.1456   -8.3047  -17.0978 N   0  0  0  0  0  0  0  0  0  0  0  0
   23.4971   -7.0416  -16.7605 C   0  0  1  0  0  0  0  0  0  0  0  0
   23.6966   -6.1499  -17.9472 C   0  0  0  0  0  0  0  0  0  0  0  0
   23.0935   -4.8225  -17.8578 C   0  0  0  0  0  0  0  0  0  0  0  0
   22.4909   -4.5459  -16.7790 O   0  0  0  0  0  0  0  0  0  0  0  0
   22.0543   -7.2865  -16.4871 C   0  0  0  0  0  0  0  0  0  0  0  0
   21.3633   -6.3065  -15.7732 O   0  0  0  0  0  0  0  0  0  0  0  0
   23.1018   -3.8344  -18.8108 O   0  0  0  0  0  0  0  0  0  0  0  0
   21.4362   -8.3026  -16.8542 O   0  0  0  0  0  0  0  0  0  0  0  0
  2  1  1  1
  2  4  1  0
  2  3  1  0
  4  5  2  0
  7  6  1  1
  7  9  1  0
  8  7  1  0
 10  9  1  6
 10 11  1  0
 10 12  1  0
 11  4  1  0
 12 14  1  0
 13 12  2  0
 14 15  1  0
 15 19  1  0
 16 17  1  0
 15 16  1  6
 17 18  2  0
 19 22  2  0
 19 20  1  0
 21 17  1  0
M  END
$$$$
