ALD.pdb
     RDKit          3D

 22 21  0  0  1  0  0  0  0  0999 V2000
   43.3911   -8.2491   -6.3212 C   0  0  0  0  0  0  0  0  0  0  0  0
   42.9172   -9.5679   -6.8893 C   0  0  2  0  0  0  0  0  0  0  0  0
   43.9339  -10.1350   -7.7887 N   0  0  0  0  0  0  0  0  0  0  0  0
   41.6773   -9.3889   -7.6713 C   0  0  0  0  0  0  0  0  0  0  0  0
   41.7460   -9.1016   -8.8910 O   0  0  0  0  0  0  0  0  0  0  0  0
   36.9951  -11.9459   -6.1939 C   0  0  0  0  0  0  0  0  0  0  0  0
   38.1591  -11.4121   -7.0457 C   0  0  1  0  0  0  0  0  0  0  0  0
   37.9434  -12.0004   -8.4454 C   0  0  0  0  0  0  0  0  0  0  0  0
   37.9839   -9.9294   -7.2014 C   0  0  0  0  0  0  0  0  0  0  0  0
   39.1552   -9.2861   -7.7796 C   0  0  2  0  0  0  0  0  0  0  0  0
   40.4067   -9.5284   -7.1000 N   0  0  0  0  0  0  0  0  0  0  0  0
   38.9869   -7.8079   -7.7962 C   0  0  0  0  0  0  0  0  0  0  0  0
   39.1543   -7.0458   -6.8159 O   0  0  0  0  0  0  0  0  0  0  0  0
   38.6008   -7.1349   -9.0090 N   0  0  0  0  0  0  0  0  0  0  0  0
   38.5204   -5.6779   -9.0322 C   0  0  1  0  0  0  0  0  0  0  0  0
   39.8960   -5.1872   -8.6999 C   0  0  0  0  0  0  0  0  0  0  0  0
   40.0872   -3.7399   -8.7480 C   0  0  0  0  0  0  0  0  0  0  0  0
   40.3953   -3.2466   -9.8728 O   0  0  0  0  0  0  0  0  0  0  0  0
   38.0831   -5.2303  -10.3830 C   0  0  0  0  0  0  0  0  0  0  0  0
   38.0612   -6.1878  -11.3980 O   0  0  0  0  0  0  0  0  0  0  0  0
   39.9725   -2.8464   -7.7120 O   0  0  0  0  0  0  0  0  0  0  0  0
   37.7399   -4.0655  -10.6561 O   0  0  0  0  0  0  0  0  0  0  0  0
  2  1  1  6
  2  4  1  0
  2  3  1  0
  4  5  2  0
  7  6  1  1
  7  9  1  0
  8  7  1  0
 10  9  1  1
 10 11  1  0
 10 12  1  0
 11  4  1  0
 12 14  1  0
 13 12  2  0
 14 15  1  0
 15 19  1  0
 16 17  1  0
 15 16  1  6
 17 18  2  0
 19 22  2  0
 19 20  1  0
 21 17  1  0
M  END
$$$$
