ALD.pdb
     RDKit          3D

 22 21  0  0  1  0  0  0  0  0999 V2000
   20.5621  -12.0395  -19.7204 C   0  0  0  0  0  0  0  0  0  0  0  0
   21.8636  -12.3523  -19.0169 C   0  0  2  0  0  0  0  0  0  0  0  0
   21.9062  -13.7685  -18.6209 N   0  0  0  0  0  0  0  0  0  0  0  0
   22.0081  -11.5401  -17.7920 C   0  0  0  0  0  0  0  0  0  0  0  0
   21.2710  -11.7689  -16.8023 O   0  0  0  0  0  0  0  0  0  0  0  0
   26.6144  -10.2257  -15.3417 C   0  0  0  0  0  0  0  0  0  0  0  0
   25.1384  -10.5759  -15.5955 C   0  0  1  0  0  0  0  0  0  0  0  0
   24.5333  -10.8221  -14.2081 C   0  0  0  0  0  0  0  0  0  0  0  0
   24.4503   -9.3502  -16.1225 C   0  0  0  0  0  0  0  0  0  0  0  0
   23.0865   -9.6182  -16.5565 C   0  0  2  0  0  0  0  0  0  0  0  0
   22.9484  -10.5083  -17.6859 N   0  0  0  0  0  0  0  0  0  0  0  0
   22.4053   -8.3565  -16.9539 C   0  0  0  0  0  0  0  0  0  0  0  0
   22.6069   -7.7250  -18.0171 O   0  0  0  0  0  0  0  0  0  0  0  0
   21.4214   -7.7593  -16.0890 N   0  0  0  0  0  0  0  0  0  0  0  0
   20.8165   -6.4831  -16.4564 C   0  0  1  0  0  0  0  0  0  0  0  0
   19.3715   -6.7762  -16.7196 C   0  0  0  0  0  0  0  0  0  0  0  0
   18.5432   -5.6301  -17.0855 C   0  0  0  0  0  0  0  0  0  0  0  0
   17.9942   -5.0012  -16.1333 O   0  0  0  0  0  0  0  0  0  0  0  0
   20.9915   -5.5154  -15.3386 C   0  0  0  0  0  0  0  0  0  0  0  0
   20.5828   -4.1999  -15.5616 O   0  0  0  0  0  0  0  0  0  0  0  0
   18.2874   -5.1519  -18.3467 O   0  0  0  0  0  0  0  0  0  0  0  0
   21.4753   -5.8086  -14.2298 O   0  0  0  0  0  0  0  0  0  0  0  0
  2  1  1  1
  2  4  1  0
  2  3  1  0
  4  5  2  0
  7  6  1  1
  7  9  1  0
  8  7  1  0
 10  9  1  6
 10 11  1  0
 10 12  1  0
 11  4  1  0
 12 14  1  0
 13 12  2  0
 14 15  1  0
 15 19  1  0
 16 17  1  0
 15 16  1  1
 17 18  2  0
 19 22  2  0
 19 20  1  0
 21 17  1  0
M  END
$$$$
