ALD.pdb
     RDKit          3D

 22 21  0  0  1  0  0  0  0  0999 V2000
   20.6415  -12.9485  -17.4372 C   0  0  0  0  0  0  0  0  0  0  0  0
   20.9737  -11.5492  -17.9042 C   0  0  2  0  0  0  0  0  0  0  0  0
   21.8601  -11.5959  -19.0774 N   0  0  0  0  0  0  0  0  0  0  0  0
   21.6719  -10.7929  -16.8452 C   0  0  0  0  0  0  0  0  0  0  0  0
   21.1984  -10.7665  -15.6832 O   0  0  0  0  0  0  0  0  0  0  0  0
   27.1080  -10.4755  -16.4869 C   0  0  0  0  0  0  0  0  0  0  0  0
   25.6144  -10.5959  -16.1405 C   0  0  1  0  0  0  0  0  0  0  0  0
   25.5691  -10.9612  -14.6518 C   0  0  0  0  0  0  0  0  0  0  0  0
   24.9994   -9.2300  -16.2383 C   0  0  0  0  0  0  0  0  0  0  0  0
   23.5480   -9.2614  -16.1258 C   0  0  2  0  0  0  0  0  0  0  0  0
   22.8597  -10.0923  -17.0864 N   0  0  0  0  0  0  0  0  0  0  0  0
   22.9795   -7.8969  -16.2947 C   0  0  0  0  0  0  0  0  0  0  0  0
   22.6652   -7.3701  -17.3873 O   0  0  0  0  0  0  0  0  0  0  0  0
   22.7462   -7.0604  -15.1463 N   0  0  0  0  0  0  0  0  0  0  0  0
   22.1572   -5.7371  -15.3245 C   0  0  1  0  0  0  0  0  0  0  0  0
   20.7892   -5.9710  -15.8875 C   0  0  0  0  0  0  0  0  0  0  0  0
   19.9436   -4.7878  -16.0244 C   0  0  0  0  0  0  0  0  0  0  0  0
   20.5220   -3.7152  -16.3683 O   0  0  0  0  0  0  0  0  0  0  0  0
   22.1044   -5.0407  -14.0097 C   0  0  0  0  0  0  0  0  0  0  0  0
   21.5905   -3.7433  -13.9934 O   0  0  0  0  0  0  0  0  0  0  0  0
   18.5885   -4.7006  -15.8221 O   0  0  0  0  0  0  0  0  0  0  0  0
   22.4873   -5.5428  -12.9371 O   0  0  0  0  0  0  0  0  0  0  0  0
  2  1  1  1
  2  4  1  0
  2  3  1  0
  4  5  2  0
  7  6  1  1
  7  9  1  0
  8  7  1  0
 10  9  1  6
 10 11  1  0
 10 12  1  0
 11  4  1  0
 12 14  1  0
 13 12  2  0
 14 15  1  0
 15 19  1  0
 16 17  1  0
 15 16  1  1
 17 18  2  0
 19 22  2  0
 19 20  1  0
 21 17  1  0
M  END
$$$$
