ALD.pdb
     RDKit          3D

 22 21  0  0  1  0  0  0  0  0999 V2000
   19.9329  -12.3998  -17.8763 C   0  0  0  0  0  0  0  0  0  0  0  0
   20.2168  -10.9898  -18.3428 C   0  0  2  0  0  0  0  0  0  0  0  0
   21.3789  -10.9710  -19.2446 N   0  0  0  0  0  0  0  0  0  0  0  0
   20.5238  -10.1086  -17.1982 C   0  0  0  0  0  0  0  0  0  0  0  0
   19.6722   -9.9467  -16.2907 O   0  0  0  0  0  0  0  0  0  0  0  0
   25.3930   -9.9512  -14.8347 C   0  0  0  0  0  0  0  0  0  0  0  0
   23.8632   -9.9083  -14.9875 C   0  0  1  0  0  0  0  0  0  0  0  0
   23.3106   -9.8971  -13.5571 C   0  0  0  0  0  0  0  0  0  0  0  0
   23.4883   -8.5782  -15.5739 C   0  0  0  0  0  0  0  0  0  0  0  0
   22.1000   -8.5313  -16.0103 C   0  0  2  0  0  0  0  0  0  0  0  0
   21.7453   -9.4347  -17.0803 N   0  0  0  0  0  0  0  0  0  0  0  0
   21.7502   -7.1709  -16.5006 C   0  0  0  0  0  0  0  0  0  0  0  0
   22.2647   -6.6000  -17.4902 O   0  0  0  0  0  0  0  0  0  0  0  0
   20.7440   -6.3927  -15.8262 N   0  0  0  0  0  0  0  0  0  0  0  0
   20.2645   -5.1535  -16.4298 C   0  0  1  0  0  0  0  0  0  0  0  0
   19.6068   -5.5526  -17.7150 C   0  0  0  0  0  0  0  0  0  0  0  0
   19.9638   -4.7598  -18.8887 C   0  0  0  0  0  0  0  0  0  0  0  0
   19.4777   -5.1364  -19.9956 O   0  0  0  0  0  0  0  0  0  0  0  0
   19.3091   -4.4906  -15.5003 C   0  0  0  0  0  0  0  0  0  0  0  0
   18.7250   -5.2830  -14.5111 O   0  0  0  0  0  0  0  0  0  0  0  0
   20.7692   -3.6489  -18.9340 O   0  0  0  0  0  0  0  0  0  0  0  0
   19.0050   -3.2848  -15.5537 O   0  0  0  0  0  0  0  0  0  0  0  0
  2  1  1  1
  2  4  1  0
  2  3  1  0
  4  5  2  0
  7  6  1  1
  7  9  1  0
  8  7  1  0
 10  9  1  6
 10 11  1  0
 10 12  1  0
 11  4  1  0
 12 14  1  0
 13 12  2  0
 14 15  1  0
 15 19  1  0
 16 17  1  0
 15 16  1  6
 17 18  2  0
 19 22  2  0
 19 20  1  0
 21 17  1  0
M  END
$$$$
