ALD.pdb
     RDKit          3D

 22 21  0  0  1  0  0  0  0  0999 V2000
   24.6841  -26.5310  -17.4229 C   0  0  0  0  0  0  0  0  0  0  0  0
   25.6152  -25.3951  -17.0632 C   0  0  2  0  0  0  0  0  0  0  0  0
   26.8107  -25.9084  -16.3766 N   0  0  0  0  0  0  0  0  0  0  0  0
   24.9521  -24.4392  -16.1535 C   0  0  0  0  0  0  0  0  0  0  0  0
   24.9993  -24.6245  -14.9131 O   0  0  0  0  0  0  0  0  0  0  0  0
   25.2024  -19.1463  -17.2454 C   0  0  0  0  0  0  0  0  0  0  0  0
   25.2111  -20.5069  -16.5282 C   0  0  1  0  0  0  0  0  0  0  0  0
   25.7845  -20.2290  -15.1334 C   0  0  0  0  0  0  0  0  0  0  0  0
   23.7875  -20.9258  -16.3016 C   0  0  0  0  0  0  0  0  0  0  0  0
   23.6795  -22.2864  -15.7943 C   0  0  2  0  0  0  0  0  0  0  0  0
   24.2615  -23.3159  -16.6239 N   0  0  0  0  0  0  0  0  0  0  0  0
   22.2523  -22.6694  -15.6207 C   0  0  0  0  0  0  0  0  0  0  0  0
   21.4998  -23.1002  -16.5252 O   0  0  0  0  0  0  0  0  0  0  0  0
   21.6231  -22.5598  -14.3304 N   0  0  0  0  0  0  0  0  0  0  0  0
   20.2234  -22.9424  -14.1747 C   0  0  1  0  0  0  0  0  0  0  0  0
   20.1084  -23.5210  -12.7980 C   0  0  0  0  0  0  0  0  0  0  0  0
   18.7904  -24.0296  -12.4266 C   0  0  0  0  0  0  0  0  0  0  0  0
   17.8867  -23.9596  -13.3108 O   0  0  0  0  0  0  0  0  0  0  0  0
   19.3624  -21.7398  -14.3447 C   0  0  0  0  0  0  0  0  0  0  0  0
   18.1603  -21.9061  -15.0337 O   0  0  0  0  0  0  0  0  0  0  0  0
   18.4134  -24.5767  -11.2253 O   0  0  0  0  0  0  0  0  0  0  0  0
   19.6494  -20.6083  -13.9128 O   0  0  0  0  0  0  0  0  0  0  0  0
  2  1  1  1
  2  4  1  0
  2  3  1  0
  4  5  2  0
  7  6  1  6
  7  9  1  0
  8  7  1  0
 10  9  1  6
 10 11  1  0
 10 12  1  0
 11  4  1  0
 12 14  1  0
 13 12  2  0
 14 15  1  0
 15 19  1  0
 16 17  1  0
 15 16  1  1
 17 18  2  0
 19 22  2  0
 19 20  1  0
 21 17  1  0
M  END
$$$$
