ALD.pdb
     RDKit          3D

 22 21  0  0  1  0  0  0  0  0999 V2000
   17.2971   -9.1257  -18.0228 C   0  0  0  0  0  0  0  0  0  0  0  0
   18.0926  -10.2169  -17.3424 C   0  0  2  0  0  0  0  0  0  0  0  0
   17.1909  -11.1849  -16.6987 N   0  0  0  0  0  0  0  0  0  0  0  0
   18.9678   -9.6546  -16.2942 C   0  0  0  0  0  0  0  0  0  0  0  0
   18.4631   -9.2010  -15.2385 O   0  0  0  0  0  0  0  0  0  0  0  0
   24.1711  -11.4671  -15.2800 C   0  0  0  0  0  0  0  0  0  0  0  0
   22.7101  -11.0099  -15.1325 C   0  0  1  0  0  0  0  0  0  0  0  0
   22.4140  -11.0690  -13.6290 C   0  0  0  0  0  0  0  0  0  0  0  0
   22.6349   -9.5565  -15.5004 C   0  0  0  0  0  0  0  0  0  0  0  0
   21.2737   -9.0407  -15.4640 C   0  0  2  0  0  0  0  0  0  0  0  0
   20.3603   -9.6051  -16.4305 N   0  0  0  0  0  0  0  0  0  0  0  0
   21.2623   -7.5733  -15.7099 C   0  0  0  0  0  0  0  0  0  0  0  0
   21.3499   -7.0233  -16.8323 O   0  0  0  0  0  0  0  0  0  0  0  0
   21.1430   -6.6537  -14.6086 N   0  0  0  0  0  0  0  0  0  0  0  0
   21.2600   -5.2192  -14.8497 C   0  0  1  0  0  0  0  0  0  0  0  0
   19.8567   -4.7079  -14.9631 C   0  0  0  0  0  0  0  0  0  0  0  0
   19.7128   -3.2605  -15.0965 C   0  0  0  0  0  0  0  0  0  0  0  0
   20.5433   -2.6762  -15.8530 O   0  0  0  0  0  0  0  0  0  0  0  0
   21.9907   -4.5874  -13.7169 C   0  0  0  0  0  0  0  0  0  0  0  0
   22.2687   -3.2235  -13.8163 O   0  0  0  0  0  0  0  0  0  0  0  0
   18.7789   -2.4540  -14.4946 O   0  0  0  0  0  0  0  0  0  0  0  0
   22.3633   -5.1982  -12.6984 O   0  0  0  0  0  0  0  0  0  0  0  0
  2  1  1  1
  2  4  1  0
  2  3  1  0
  4  5  2  0
  7  6  1  1
  7  9  1  0
  8  7  1  0
 10  9  1  6
 10 11  1  0
 10 12  1  0
 11  4  1  0
 12 14  1  0
 13 12  2  0
 14 15  1  0
 15 19  1  0
 16 17  1  0
 15 16  1  1
 17 18  2  0
 19 22  2  0
 19 20  1  0
 21 17  1  0
M  END
$$$$
