ALD.pdb
     RDKit          3D

 22 21  0  0  1  0  0  0  0  0999 V2000
   18.8450  -22.5670  -14.1058 C   0  0  0  0  0  0  0  0  0  0  0  0
   19.1845  -22.5265  -12.6329 C   0  0  2  0  0  0  0  0  0  0  0  0
   18.0411  -22.0240  -11.8556 N   0  0  0  0  0  0  0  0  0  0  0  0
   20.3277  -21.6262  -12.3809 C   0  0  0  0  0  0  0  0  0  0  0  0
   20.1201  -20.4335  -12.0499 O   0  0  0  0  0  0  0  0  0  0  0  0
   24.8601  -19.9075  -10.5306 C   0  0  0  0  0  0  0  0  0  0  0  0
   25.1535  -20.8540  -11.7068 C   0  0  1  0  0  0  0  0  0  0  0  0
   26.3548  -21.6970  -11.2621 C   0  0  0  0  0  0  0  0  0  0  0  0
   24.0091  -21.8178  -11.8288 C   0  0  0  0  0  0  0  0  0  0  0  0
   22.8183  -21.2022  -12.3973 C   0  0  2  0  0  0  0  0  0  0  0  0
   21.6557  -22.0538  -12.4975 N   0  0  0  0  0  0  0  0  0  0  0  0
   23.0853  -20.7228  -13.7802 C   0  0  0  0  0  0  0  0  0  0  0  0
   23.0856  -21.4366  -14.8100 O   0  0  0  0  0  0  0  0  0  0  0  0
   23.3739  -19.3335  -14.0238 N   0  0  0  0  0  0  0  0  0  0  0  0
   23.6067  -18.8729  -15.3889 C   0  0  1  0  0  0  0  0  0  0  0  0
   24.7080  -19.7327  -15.9283 C   0  0  0  0  0  0  0  0  0  0  0  0
   25.5507  -19.1231  -16.9540 C   0  0  0  0  0  0  0  0  0  0  0  0
   25.3508  -17.8962  -17.1954 O   0  0  0  0  0  0  0  0  0  0  0  0
   22.3526  -19.0179  -16.1780 C   0  0  0  0  0  0  0  0  0  0  0  0
   21.2351  -19.5271  -15.5151 O   0  0  0  0  0  0  0  0  0  0  0  0
   26.5386  -19.7266  -17.6919 O   0  0  0  0  0  0  0  0  0  0  0  0
   22.2446  -18.7148  -17.3804 O   0  0  0  0  0  0  0  0  0  0  0  0
  2  1  1  6
  2  4  1  0
  2  3  1  0
  4  5  2  0
  7  6  1  1
  7  9  1  0
  8  7  1  0
 10  9  1  6
 10 11  1  0
 10 12  1  0
 11  4  1  0
 12 14  1  0
 13 12  2  0
 14 15  1  0
 15 19  1  0
 16 17  1  0
 15 16  1  6
 17 18  2  0
 19 22  2  0
 19 20  1  0
 21 17  1  0
M  END
$$$$
