ALD.pdb
     RDKit          3D

 22 21  0  0  1  0  0  0  0  0999 V2000
   20.2330   -9.3555  -19.1741 C   0  0  0  0  0  0  0  0  0  0  0  0
   21.4732  -10.1909  -18.9494 C   0  0  2  0  0  0  0  0  0  0  0  0
   21.2778  -11.5518  -19.4728 N   0  0  0  0  0  0  0  0  0  0  0  0
   21.7772  -10.3045  -17.5087 C   0  0  0  0  0  0  0  0  0  0  0  0
   21.0897  -11.0653  -16.7850 O   0  0  0  0  0  0  0  0  0  0  0  0
   26.8468  -10.2110  -15.7674 C   0  0  0  0  0  0  0  0  0  0  0  0
   25.3579  -10.5431  -15.9633 C   0  0  1  0  0  0  0  0  0  0  0  0
   25.1498  -11.9008  -15.2816 C   0  0  0  0  0  0  0  0  0  0  0  0
   24.5504   -9.5632  -15.1626 C   0  0  0  0  0  0  0  0  0  0  0  0
   23.1335   -9.6025  -15.4960 C   0  0  2  0  0  0  0  0  0  0  0  0
   22.8175   -9.5875  -16.9055 N   0  0  0  0  0  0  0  0  0  0  0  0
   22.4250   -8.4312  -14.9131 C   0  0  0  0  0  0  0  0  0  0  0  0
   22.4252   -8.1101  -13.7020 O   0  0  0  0  0  0  0  0  0  0  0  0
   21.6574   -7.5533  -15.7574 N   0  0  0  0  0  0  0  0  0  0  0  0
   21.0426   -6.3587  -15.1877 C   0  0  1  0  0  0  0  0  0  0  0  0
   22.1416   -5.3472  -15.0755 C   0  0  0  0  0  0  0  0  0  0  0  0
   21.9308   -4.2800  -14.1008 C   0  0  0  0  0  0  0  0  0  0  0  0
   20.8143   -4.2710  -13.5035 O   0  0  0  0  0  0  0  0  0  0  0  0
   19.9491   -5.8926  -16.0839 C   0  0  0  0  0  0  0  0  0  0  0  0
   19.2150   -4.7796  -15.6718 O   0  0  0  0  0  0  0  0  0  0  0  0
   22.8045   -3.2793  -13.7544 O   0  0  0  0  0  0  0  0  0  0  0  0
   19.6555   -6.4316  -17.1667 O   0  0  0  0  0  0  0  0  0  0  0  0
  2  1  1  1
  2  4  1  0
  2  3  1  0
  4  5  2  0
  7  6  1  1
  7  9  1  0
  8  7  1  0
 10  9  1  6
 10 11  1  0
 10 12  1  0
 11  4  1  0
 12 14  1  0
 13 12  2  0
 14 15  1  0
 15 19  1  0
 16 17  1  0
 15 16  1  6
 17 18  2  0
 19 22  2  0
 19 20  1  0
 21 17  1  0
M  END
$$$$
