ALD.pdb
     RDKit          3D

 22 21  0  0  1  0  0  0  0  0999 V2000
   17.1775  -25.4604  -11.8860 C   0  0  0  0  0  0  0  0  0  0  0  0
   18.1562  -24.7193  -11.0032 C   0  0  2  0  0  0  0  0  0  0  0  0
   17.7284  -24.7809   -9.5970 N   0  0  0  0  0  0  0  0  0  0  0  0
   18.2353  -23.2949  -11.3852 C   0  0  0  0  0  0  0  0  0  0  0  0
   17.2293  -22.5568  -11.2497 O   0  0  0  0  0  0  0  0  0  0  0  0
   22.7687  -20.2594  -10.6911 C   0  0  0  0  0  0  0  0  0  0  0  0
   21.3125  -20.7527  -10.7339 C   0  0  1  0  0  0  0  0  0  0  0  0
   20.4891  -19.6525  -10.0533 C   0  0  0  0  0  0  0  0  0  0  0  0
   20.8636  -20.7631  -12.1663 C   0  0  0  0  0  0  0  0  0  0  0  0
   19.5423  -21.3518  -12.3334 C   0  0  2  0  0  0  0  0  0  0  0  0
   19.4046  -22.7232  -11.9009 N   0  0  0  0  0  0  0  0  0  0  0  0
   19.1406  -21.3401  -13.7659 C   0  0  0  0  0  0  0  0  0  0  0  0
   19.4521  -22.2066  -14.6156 O   0  0  0  0  0  0  0  0  0  0  0  0
   18.3253  -20.2718  -14.2824 N   0  0  0  0  0  0  0  0  0  0  0  0
   17.9586  -20.2614  -15.6949 C   0  0  1  0  0  0  0  0  0  0  0  0
   16.7612  -19.3678  -15.7999 C   0  0  0  0  0  0  0  0  0  0  0  0
   15.5514  -19.8391  -15.1306 C   0  0  0  0  0  0  0  0  0  0  0  0
   15.3872  -21.0935  -15.0750 O   0  0  0  0  0  0  0  0  0  0  0  0
   19.1040  -19.7506  -16.4972 C   0  0  0  0  0  0  0  0  0  0  0  0
   19.1756  -20.1461  -17.8336 O   0  0  0  0  0  0  0  0  0  0  0  0
   14.5655  -19.0786  -14.5524 O   0  0  0  0  0  0  0  0  0  0  0  0
   19.9906  -19.0000  -16.0502 O   0  0  0  0  0  0  0  0  0  0  0  0
  2  1  1  6
  2  4  1  0
  2  3  1  0
  4  5  2  0
  7  6  1  6
  7  9  1  0
  8  7  1  0
 10  9  1  6
 10 11  1  0
 10 12  1  0
 11  4  1  0
 12 14  1  0
 13 12  2  0
 14 15  1  0
 15 19  1  0
 16 17  1  0
 15 16  1  1
 17 18  2  0
 19 22  2  0
 19 20  1  0
 21 17  1  0
M  END
$$$$
