PCG.pdb
     RDKit          3D

 18 18  0  0  1  0  0  0  0  0999 V2000
    6.9822  -14.6933   21.2111 N   0  0  0  0  0  0  0  0  0  0  0  0
    6.7993  -14.4712   19.7865 C   0  0  0  0  0  0  0  0  0  0  0  0
    7.5534  -13.2044   19.5477 C   0  0  0  0  0  0  0  0  0  0  0  0
    8.6324  -13.2151   20.6102 C   0  0  0  0  0  0  0  0  0  0  0  0
    8.4106  -14.5411   21.3508 C   0  0  1  0  0  0  0  0  0  0  0  0
    8.8266  -14.3544   22.7566 C   0  0  0  0  0  0  0  0  0  0  0  0
   10.0332  -14.3387   23.1319 O   0  0  0  0  0  0  0  0  0  0  0  0
    7.8196  -14.1836   23.7375 N   0  0  0  0  0  0  0  0  0  0  0  0
    8.0742  -13.9847   25.1352 C   0  0  1  0  0  0  0  0  0  0  0  0
    7.2001  -12.8090   25.5837 C   0  0  0  0  0  0  0  0  0  0  0  0
    5.4917  -13.3789   25.7519 S   0  0  0  0  0  0  0  0  0  0  0  0
    7.7994  -15.1875   25.9398 C   0  0  0  0  0  0  0  0  0  0  0  0
    8.0481  -15.2079   27.1686 O   0  0  0  0  0  0  0  0  0  0  0  0
    7.2464  -16.3419   25.3251 N   0  0  0  0  0  0  0  0  0  0  0  0
    6.9663  -17.5590   26.0691 C   0  0  0  0  0  0  0  0  0  0  0  0
    8.1791  -18.4206   26.1073 C   0  0  0  0  0  0  0  0  0  0  0  0
    8.1275  -19.6423   26.7339 O   0  0  0  0  0  0  0  0  0  0  0  0
    9.2543  -18.0481   25.5739 O   0  0  0  0  0  0  0  0  0  0  0  0
  1  2  1  0
  2  3  1  0
  4  3  1  0
  5  1  1  0
  5  4  1  0
  5  6  1  1
  7  6  2  0
  8  6  1  0
  9  8  1  0
  9 12  1  0
  9 10  1  1
 11 10  1  0
 12 14  1  0
 13 12  2  0
 14 15  1  0
 15 16  1  0
 16 18  2  0
 16 17  1  0
M  END
$$$$
