PCG.pdb
     RDKit          3D

 18 18  0  0  1  0  0  0  0  0999 V2000
    6.8922  -14.3988   20.8829 N   0  0  0  0  0  0  0  0  0  0  0  0
    6.7639  -13.9559   19.5047 C   0  0  0  0  0  0  0  0  0  0  0  0
    7.5858  -12.7092   19.4778 C   0  0  0  0  0  0  0  0  0  0  0  0
    8.6302  -12.9363   20.5507 C   0  0  0  0  0  0  0  0  0  0  0  0
    8.3215  -14.3449   21.0765 C   0  0  1  0  0  0  0  0  0  0  0  0
    8.7031  -14.3937   22.5035 C   0  0  0  0  0  0  0  0  0  0  0  0
    9.9003  -14.4415   22.9052 O   0  0  0  0  0  0  0  0  0  0  0  0
    7.6723  -14.3865   23.4745 N   0  0  0  0  0  0  0  0  0  0  0  0
    7.8833  -14.5621   24.8825 C   0  0  1  0  0  0  0  0  0  0  0  0
    7.3241  -13.3151   25.5751 C   0  0  0  0  0  0  0  0  0  0  0  0
    5.5436  -13.5258   25.8145 S   0  0  0  0  0  0  0  0  0  0  0  0
    7.2518  -15.7867   25.4035 C   0  0  0  0  0  0  0  0  0  0  0  0
    6.0429  -16.0310   25.1773 O   0  0  0  0  0  0  0  0  0  0  0  0
    8.0131  -16.7067   26.1716 N   0  0  0  0  0  0  0  0  0  0  0  0
    7.4646  -17.9695   26.6383 C   0  0  0  0  0  0  0  0  0  0  0  0
    8.4242  -18.6273   27.5663 C   0  0  0  0  0  0  0  0  0  0  0  0
    8.0911  -19.8226   28.1562 O   0  0  0  0  0  0  0  0  0  0  0  0
    9.5390  -18.1058   27.8206 O   0  0  0  0  0  0  0  0  0  0  0  0
  1  2  1  0
  2  3  1  0
  4  3  1  0
  5  1  1  0
  5  4  1  0
  5  6  1  1
  7  6  2  0
  8  6  1  0
  9  8  1  0
  9 12  1  0
  9 10  1  1
 11 10  1  0
 12 14  1  0
 13 12  2  0
 14 15  1  0
 15 16  1  0
 16 18  2  0
 16 17  1  0
M  END
$$$$
