PCG.pdb
     RDKit          3D

 18 18  0  0  1  0  0  0  0  0999 V2000
    7.1372  -14.5256   21.0938 N   0  0  0  0  0  0  0  0  0  0  0  0
    7.2705  -14.1466   19.6971 C   0  0  0  0  0  0  0  0  0  0  0  0
    7.9312  -12.8096   19.7766 C   0  0  0  0  0  0  0  0  0  0  0  0
    8.7286  -12.8715   21.0626 C   0  0  0  0  0  0  0  0  0  0  0  0
    8.4717  -14.2897   21.5904 C   0  0  1  0  0  0  0  0  0  0  0  0
    8.5281  -14.2450   23.0666 C   0  0  0  0  0  0  0  0  0  0  0  0
    9.6019  -14.1198   23.7211 O   0  0  0  0  0  0  0  0  0  0  0  0
    7.3140  -14.3477   23.7881 N   0  0  0  0  0  0  0  0  0  0  0  0
    7.2255  -14.4517   25.2162 C   0  0  1  0  0  0  0  0  0  0  0  0
    6.2111  -13.3997   25.6767 C   0  0  0  0  0  0  0  0  0  0  0  0
    6.9639  -11.7606   25.5421 S   0  0  0  0  0  0  0  0  0  0  0  0
    6.8337  -15.7988   25.6648 C   0  0  0  0  0  0  0  0  0  0  0  0
    5.6498  -16.1951   25.5471 O   0  0  0  0  0  0  0  0  0  0  0  0
    7.8011  -16.6656   26.2384 N   0  0  0  0  0  0  0  0  0  0  0  0
    7.4716  -18.0084   26.6873 C   0  0  0  0  0  0  0  0  0  0  0  0
    8.6911  -18.6817   27.2111 C   0  0  0  0  0  0  0  0  0  0  0  0
    8.6019  -19.9562   27.7165 O   0  0  0  0  0  0  0  0  0  0  0  0
    9.8059  -18.1017   27.1988 O   0  0  0  0  0  0  0  0  0  0  0  0
  1  2  1  0
  2  3  1  0
  4  3  1  0
  5  1  1  0
  5  4  1  0
  5  6  1  1
  7  6  2  0
  8  6  1  0
  9  8  1  0
  9 12  1  0
  9 10  1  6
 11 10  1  0
 12 14  1  0
 13 12  2  0
 14 15  1  0
 15 16  1  0
 16 18  2  0
 16 17  1  0
M  END
$$$$
