PCG.pdb
     RDKit          3D

 18 18  0  0  1  0  0  0  0  0999 V2000
    7.1160  -14.9555   20.9456 N   0  0  0  0  0  0  0  0  0  0  0  0
    7.1006  -14.8210   19.4986 C   0  0  0  0  0  0  0  0  0  0  0  0
    7.5940  -13.4271   19.2886 C   0  0  0  0  0  0  0  0  0  0  0  0
    8.4831  -13.1694   20.4872 C   0  0  0  0  0  0  0  0  0  0  0  0
    8.4430  -14.4894   21.2694 C   0  0  1  0  0  0  0  0  0  0  0  0
    8.5993  -14.1746   22.7050 C   0  0  0  0  0  0  0  0  0  0  0  0
    9.6703  -13.7346   23.2111 O   0  0  0  0  0  0  0  0  0  0  0  0
    7.4894  -14.3766   23.5610 N   0  0  0  0  0  0  0  0  0  0  0  0
    7.4520  -13.9964   24.9438 C   0  0  1  0  0  0  0  0  0  0  0  0
    6.4480  -12.8450   25.0616 C   0  0  0  0  0  0  0  0  0  0  0  0
    5.4436  -13.0920   26.5454 S   0  0  0  0  0  0  0  0  0  0  0  0
    7.0846  -15.1136   25.8307 C   0  0  0  0  0  0  0  0  0  0  0  0
    7.1856  -15.0042   27.0757 O   0  0  0  0  0  0  0  0  0  0  0  0
    6.6097  -16.3323   25.2781 N   0  0  0  0  0  0  0  0  0  0  0  0
    7.5026  -17.3224   24.6989 C   0  0  0  0  0  0  0  0  0  0  0  0
    8.2810  -17.9944   25.7747 C   0  0  0  0  0  0  0  0  0  0  0  0
    8.4630  -19.3558   25.7353 O   0  0  0  0  0  0  0  0  0  0  0  0
    8.7767  -17.3351   26.7228 O   0  0  0  0  0  0  0  0  0  0  0  0
  1  2  1  0
  2  3  1  0
  4  3  1  0
  5  1  1  0
  5  4  1  0
  5  6  1  1
  7  6  2  0
  8  6  1  0
  9  8  1  0
  9 12  1  0
  9 10  1  6
 11 10  1  0
 12 14  1  0
 13 12  2  0
 14 15  1  0
 15 16  1  0
 16 18  2  0
 16 17  1  0
M  END
$$$$
