PCG.pdb
     RDKit          3D

 18 18  0  0  1  0  0  0  0  0999 V2000
    7.5233  -15.1474   20.1115 N   0  0  0  0  0  0  0  0  0  0  0  0
    7.0446  -14.8145   18.7803 C   0  0  0  0  0  0  0  0  0  0  0  0
    7.3232  -13.3504   18.6829 C   0  0  0  0  0  0  0  0  0  0  0  0
    8.5161  -13.1437   19.5926 C   0  0  0  0  0  0  0  0  0  0  0  0
    8.8387  -14.5533   20.1073 C   0  0  1  0  0  0  0  0  0  0  0  0
    9.4075  -14.4247   21.4654 C   0  0  0  0  0  0  0  0  0  0  0  0
   10.5603  -13.9627   21.6989 O   0  0  0  0  0  0  0  0  0  0  0  0
    8.6191  -14.8414   22.5654 N   0  0  0  0  0  0  0  0  0  0  0  0
    9.0754  -14.8709   23.9252 C   0  0  1  0  0  0  0  0  0  0  0  0
    7.8295  -14.7996   24.8141 C   0  0  0  0  0  0  0  0  0  0  0  0
    7.0413  -13.1870   24.5909 S   0  0  0  0  0  0  0  0  0  0  0  0
    9.8768  -16.0687   24.2299 C   0  0  0  0  0  0  0  0  0  0  0  0
    9.3259  -17.1306   24.6056 O   0  0  0  0  0  0  0  0  0  0  0  0
   11.2902  -16.0294   24.0995 N   0  0  0  0  0  0  0  0  0  0  0  0
   12.1273  -17.1873   24.3675 C   0  0  0  0  0  0  0  0  0  0  0  0
   13.5327  -16.8999   23.9713 C   0  0  0  0  0  0  0  0  0  0  0  0
   14.4860  -17.8834   24.0799 O   0  0  0  0  0  0  0  0  0  0  0  0
   13.8638  -15.7680   23.5373 O   0  0  0  0  0  0  0  0  0  0  0  0
  1  2  1  0
  2  3  1  0
  4  3  1  0
  5  1  1  0
  5  4  1  0
  5  6  1  1
  7  6  2  0
  8  6  1  0
  9  8  1  0
  9 12  1  0
  9 10  1  1
 11 10  1  0
 12 14  1  0
 13 12  2  0
 14 15  1  0
 15 16  1  0
 16 18  2  0
 16 17  1  0
M  END
$$$$
