PCG.pdb
     RDKit          3D

 18 18  0  0  1  0  0  0  0  0999 V2000
    7.1430  -14.9098   21.1392 N   0  0  0  0  0  0  0  0  0  0  0  0
    7.0459  -14.6071   19.7211 C   0  0  0  0  0  0  0  0  0  0  0  0
    7.5450  -13.2015   19.6458 C   0  0  0  0  0  0  0  0  0  0  0  0
    8.5052  -13.0914   20.8117 C   0  0  0  0  0  0  0  0  0  0  0  0
    8.4927  -14.4934   21.4363 C   0  0  1  0  0  0  0  0  0  0  0  0
    8.7357  -14.3495   22.8870 C   0  0  0  0  0  0  0  0  0  0  0  0
    9.8603  -14.0520   23.3807 O   0  0  0  0  0  0  0  0  0  0  0  0
    7.6505  -14.5558   23.7730 N   0  0  0  0  0  0  0  0  0  0  0  0
    7.7475  -14.4916   25.2029 C   0  0  1  0  0  0  0  0  0  0  0  0
    7.0914  -13.1760   25.6346 C   0  0  0  0  0  0  0  0  0  0  0  0
    5.2945  -13.3545   25.5298 S   0  0  0  0  0  0  0  0  0  0  0  0
    7.1144  -15.6435   25.8678 C   0  0  0  0  0  0  0  0  0  0  0  0
    6.9705  -15.6658   27.1132 O   0  0  0  0  0  0  0  0  0  0  0  0
    6.6588  -16.7458   25.0974 N   0  0  0  0  0  0  0  0  0  0  0  0
    7.5618  -17.5687   24.3095 C   0  0  0  0  0  0  0  0  0  0  0  0
    8.4130  -18.3929   25.2101 C   0  0  0  0  0  0  0  0  0  0  0  0
    8.3556  -19.7637   25.1357 O   0  0  0  0  0  0  0  0  0  0  0  0
    9.1867  -17.8541   26.0410 O   0  0  0  0  0  0  0  0  0  0  0  0
  1  2  1  0
  2  3  1  0
  4  3  1  0
  5  1  1  0
  5  4  1  0
  5  6  1  1
  7  6  2  0
  8  6  1  0
  9  8  1  0
  9 12  1  0
  9 10  1  1
 11 10  1  0
 12 14  1  0
 13 12  2  0
 14 15  1  0
 15 16  1  0
 16 18  2  0
 16 17  1  0
M  END
$$$$
