PCG.pdb
     RDKit          3D

 18 18  0  0  1  0  0  0  0  0999 V2000
    7.1225  -14.6697   20.7830 N   0  0  0  0  0  0  0  0  0  0  0  0
    7.0432  -14.3500   19.3675 C   0  0  0  0  0  0  0  0  0  0  0  0
    7.6844  -13.0032   19.2940 C   0  0  0  0  0  0  0  0  0  0  0  0
    8.6623  -13.0001   20.4504 C   0  0  0  0  0  0  0  0  0  0  0  0
    8.5108  -14.3970   21.0681 C   0  0  1  0  0  0  0  0  0  0  0  0
    8.7817  -14.2877   22.5169 C   0  0  0  0  0  0  0  0  0  0  0  0
    9.9437  -14.1967   23.0053 O   0  0  0  0  0  0  0  0  0  0  0  0
    7.6806  -14.2847   23.4072 N   0  0  0  0  0  0  0  0  0  0  0  0
    7.7938  -14.3053   24.8372 C   0  0  1  0  0  0  0  0  0  0  0  0
    7.0609  -13.0652   25.3594 C   0  0  0  0  0  0  0  0  0  0  0  0
    5.5408  -13.5880   26.1885 S   0  0  0  0  0  0  0  0  0  0  0  0
    7.2456  -15.5358   25.4331 C   0  0  0  0  0  0  0  0  0  0  0  0
    6.0214  -15.7958   25.3557 O   0  0  0  0  0  0  0  0  0  0  0  0
    8.1061  -16.4438   26.1048 N   0  0  0  0  0  0  0  0  0  0  0  0
    7.6321  -17.7073   26.6455 C   0  0  0  0  0  0  0  0  0  0  0  0
    8.7532  -18.4281   27.3077 C   0  0  0  0  0  0  0  0  0  0  0  0
    8.5185  -19.6330   27.9250 O   0  0  0  0  0  0  0  0  0  0  0  0
    9.9160  -17.9514   27.3118 O   0  0  0  0  0  0  0  0  0  0  0  0
  1  2  1  0
  2  3  1  0
  4  3  1  0
  5  1  1  0
  5  4  1  0
  5  6  1  1
  7  6  2  0
  8  6  1  0
  9  8  1  0
  9 12  1  0
  9 10  1  1
 11 10  1  0
 12 14  1  0
 13 12  2  0
 14 15  1  0
 15 16  1  0
 16 18  2  0
 16 17  1  0
M  END
$$$$
