PCG.pdb
     RDKit          3D

 18 18  0  0  1  0  0  0  0  0999 V2000
    6.9412  -14.7275   21.0399 N   0  0  0  0  0  0  0  0  0  0  0  0
    6.6498  -14.3918   19.6562 C   0  0  0  0  0  0  0  0  0  0  0  0
    7.0464  -12.9544   19.5718 C   0  0  0  0  0  0  0  0  0  0  0  0
    8.1352  -12.8135   20.6149 C   0  0  0  0  0  0  0  0  0  0  0  0
    8.2885  -14.2304   21.1849 C   0  0  1  0  0  0  0  0  0  0  0  0
    8.7004  -14.1117   22.5993 C   0  0  0  0  0  0  0  0  0  0  0  0
    9.8241  -13.6634   22.9644 O   0  0  0  0  0  0  0  0  0  0  0  0
    7.7874  -14.5223   23.6009 N   0  0  0  0  0  0  0  0  0  0  0  0
    7.9811  -14.3185   25.0077 C   0  0  1  0  0  0  0  0  0  0  0  0
    6.5892  -14.2750   25.6467 C   0  0  0  0  0  0  0  0  0  0  0  0
    5.7052  -12.8231   25.0286 S   0  0  0  0  0  0  0  0  0  0  0  0
    8.8155  -15.3643   25.6239 C   0  0  0  0  0  0  0  0  0  0  0  0
    8.9278  -15.4438   26.8702 O   0  0  0  0  0  0  0  0  0  0  0  0
    9.5043  -16.2975   24.8048 N   0  0  0  0  0  0  0  0  0  0  0  0
   10.2762  -17.3969   25.3603 C   0  0  0  0  0  0  0  0  0  0  0  0
   10.9000  -18.1844   24.2623 C   0  0  0  0  0  0  0  0  0  0  0  0
   10.1064  -18.9198   23.4153 O   0  0  0  0  0  0  0  0  0  0  0  0
   12.1456  -18.1883   24.0960 O   0  0  0  0  0  0  0  0  0  0  0  0
  1  2  1  0
  2  3  1  0
  4  3  1  0
  5  1  1  0
  5  4  1  0
  5  6  1  1
  7  6  2  0
  8  6  1  0
  9  8  1  0
  9 12  1  0
  9 10  1  1
 11 10  1  0
 12 14  1  0
 13 12  2  0
 14 15  1  0
 15 16  1  0
 16 18  2  0
 16 17  1  0
M  END
$$$$
