PCG.pdb
     RDKit          3D

 18 18  0  0  1  0  0  0  0  0999 V2000
    8.8550  -14.7132   21.5396 N   0  0  0  0  0  0  0  0  0  0  0  0
    7.7110  -14.5826   20.6528 C   0  0  0  0  0  0  0  0  0  0  0  0
    6.6857  -15.4534   21.3016 C   0  0  0  0  0  0  0  0  0  0  0  0
    7.0487  -15.4129   22.7713 C   0  0  0  0  0  0  0  0  0  0  0  0
    8.2559  -14.4668   22.8294 C   0  0  1  0  0  0  0  0  0  0  0  0
    9.1204  -14.8974   23.9482 C   0  0  0  0  0  0  0  0  0  0  0  0
   10.0275  -15.7698   23.8342 O   0  0  0  0  0  0  0  0  0  0  0  0
    8.9226  -14.3009   25.2172 N   0  0  0  0  0  0  0  0  0  0  0  0
    9.6626  -14.6422   26.3979 C   0  0  1  0  0  0  0  0  0  0  0  0
    9.3592  -13.5616   27.4409 C   0  0  0  0  0  0  0  0  0  0  0  0
   10.3492  -13.8802   28.9207 S   0  0  0  0  0  0  0  0  0  0  0  0
    9.3291  -15.9825   26.9099 C   0  0  0  0  0  0  0  0  0  0  0  0
    8.1349  -16.3270   27.0757 O   0  0  0  0  0  0  0  0  0  0  0  0
   10.3656  -16.9014   27.2221 N   0  0  0  0  0  0  0  0  0  0  0  0
   10.0926  -18.2627   27.6532 C   0  0  0  0  0  0  0  0  0  0  0  0
   11.3668  -18.9518   27.9944 C   0  0  0  0  0  0  0  0  0  0  0  0
   11.8651  -18.8694   29.2723 O   0  0  0  0  0  0  0  0  0  0  0  0
   11.9975  -19.6106   27.1299 O   0  0  0  0  0  0  0  0  0  0  0  0
  1  2  1  0
  2  3  1  0
  4  3  1  0
  5  1  1  0
  5  4  1  0
  5  6  1  1
  7  6  2  0
  8  6  1  0
  9  8  1  0
  9 12  1  0
  9 10  1  1
 11 10  1  0
 12 14  1  0
 13 12  2  0
 14 15  1  0
 15 16  1  0
 16 18  2  0
 16 17  1  0
M  END
$$$$
