PCG.pdb
     RDKit          3D

 18 18  0  0  1  0  0  0  0  0999 V2000
    6.7385  -14.6569   21.3016 N   0  0  0  0  0  0  0  0  0  0  0  0
    6.5864  -14.5449   19.8606 C   0  0  0  0  0  0  0  0  0  0  0  0
    7.2973  -13.2690   19.5490 C   0  0  0  0  0  0  0  0  0  0  0  0
    8.3464  -13.1600   20.6357 C   0  0  0  0  0  0  0  0  0  0  0  0
    8.1556  -14.4375   21.4649 C   0  0  1  0  0  0  0  0  0  0  0  0
    8.5254  -14.1339   22.8633 C   0  0  0  0  0  0  0  0  0  0  0  0
    9.7091  -13.8973   23.2372 O   0  0  0  0  0  0  0  0  0  0  0  0
    7.4986  -14.1063   23.8381 N   0  0  0  0  0  0  0  0  0  0  0  0
    7.7040  -13.7970   25.2239 C   0  0  1  0  0  0  0  0  0  0  0  0
    6.6021  -12.8120   25.6279 C   0  0  0  0  0  0  0  0  0  0  0  0
    6.8594  -12.3176   27.3486 S   0  0  0  0  0  0  0  0  0  0  0  0
    7.6865  -14.9940   26.0820 C   0  0  0  0  0  0  0  0  0  0  0  0
    6.6751  -15.7335   26.1309 O   0  0  0  0  0  0  0  0  0  0  0  0
    8.8237  -15.3220   26.8664 N   0  0  0  0  0  0  0  0  0  0  0  0
    8.7878  -16.3489   27.8948 C   0  0  0  0  0  0  0  0  0  0  0  0
    9.5191  -17.5586   27.4296 C   0  0  0  0  0  0  0  0  0  0  0  0
    9.7361  -18.6001   28.2991 O   0  0  0  0  0  0  0  0  0  0  0  0
    9.9435  -17.6440   26.2498 O   0  0  0  0  0  0  0  0  0  0  0  0
  1  2  1  0
  2  3  1  0
  4  3  1  0
  5  1  1  0
  5  4  1  0
  5  6  1  1
  7  6  2  0
  8  6  1  0
  9  8  1  0
  9 12  1  0
  9 10  1  1
 11 10  1  0
 12 14  1  0
 13 12  2  0
 14 15  1  0
 15 16  1  0
 16 18  2  0
 16 17  1  0
M  END
$$$$
