PCG.pdb
     RDKit          3D

 18 18  0  0  1  0  0  0  0  0999 V2000
    7.1783  -14.7499   21.1228 N   0  0  0  0  0  0  0  0  0  0  0  0
    6.9709  -14.4594   19.7139 C   0  0  0  0  0  0  0  0  0  0  0  0
    7.4373  -13.0457   19.5933 C   0  0  0  0  0  0  0  0  0  0  0  0
    8.4790  -12.9099   20.6841 C   0  0  0  0  0  0  0  0  0  0  0  0
    8.5384  -14.3073   21.3164 C   0  0  1  0  0  0  0  0  0  0  0  0
    8.8855  -14.1484   22.7442 C   0  0  0  0  0  0  0  0  0  0  0  0
   10.0266  -13.7870   23.1495 O   0  0  0  0  0  0  0  0  0  0  0  0
    7.8863  -14.4151   23.7115 N   0  0  0  0  0  0  0  0  0  0  0  0
    8.1148  -14.4410   25.1276 C   0  0  1  0  0  0  0  0  0  0  0  0
    6.7812  -14.0985   25.7997 C   0  0  0  0  0  0  0  0  0  0  0  0
    6.3809  -12.3676   25.4603 S   0  0  0  0  0  0  0  0  0  0  0  0
    8.6275  -15.7397   25.5968 C   0  0  0  0  0  0  0  0  0  0  0  0
    8.1851  -16.8131   25.1230 O   0  0  0  0  0  0  0  0  0  0  0  0
    9.6343  -15.7863   26.5970 N   0  0  0  0  0  0  0  0  0  0  0  0
   10.7327  -16.7374   26.5495 C   0  0  0  0  0  0  0  0  0  0  0  0
   10.3781  -17.9606   27.3195 C   0  0  0  0  0  0  0  0  0  0  0  0
   10.7865  -18.0861   28.6253 O   0  0  0  0  0  0  0  0  0  0  0  0
    9.7085  -18.8847   26.7932 O   0  0  0  0  0  0  0  0  0  0  0  0
  1  2  1  0
  2  3  1  0
  4  3  1  0
  5  1  1  0
  5  4  1  0
  5  6  1  1
  7  6  2  0
  8  6  1  0
  9  8  1  0
  9 12  1  0
  9 10  1  1
 11 10  1  0
 12 14  1  0
 13 12  2  0
 14 15  1  0
 15 16  1  0
 16 18  2  0
 16 17  1  0
M  END
$$$$
