ILG.pdb
     RDKit          3D

 21 20  0  0  1  0  0  0  0  0999 V2000
   10.3847  -13.9627   30.0111 C   0  0  0  0  0  0  0  0  0  0  0  0
   10.8327  -14.7939   28.8188 C   0  0  0  0  0  0  0  0  0  0  0  0
    9.7782  -15.8400   28.5264 C   0  0  2  0  0  0  0  0  0  0  0  0
    9.6253  -16.7467   29.6983 C   0  0  0  0  0  0  0  0  0  0  0  0
    9.9757  -16.5323   27.2190 C   0  0  2  0  0  0  0  0  0  0  0  0
   11.3408  -16.2821   26.7911 N   0  0  0  0  0  0  0  0  0  0  0  0
    8.9854  -16.1863   26.1902 C   0  0  0  0  0  0  0  0  0  0  0  0
    8.0913  -17.0255   25.9088 O   0  0  0  0  0  0  0  0  0  0  0  0
    6.2306  -13.6656   26.7022 C   0  0  0  0  0  0  0  0  0  0  0  0
    6.3584  -12.8460   25.4490 C   0  0  1  0  0  0  0  0  0  0  0  0
    6.3604  -11.3848   25.9186 C   0  0  0  0  0  0  0  0  0  0  0  0
    7.5820  -13.1526   24.6576 C   0  0  0  0  0  0  0  0  0  0  0  0
    7.8766  -14.6110   24.5271 C   0  0  2  0  0  0  0  0  0  0  0  0
    8.9672  -14.9562   25.4834 N   0  0  0  0  0  0  0  0  0  0  0  0
    8.3791  -15.0455   23.2130 C   0  0  0  0  0  0  0  0  0  0  0  0
    7.6058  -15.0460   22.1992 O   0  0  0  0  0  0  0  0  0  0  0  0
    9.7035  -15.4786   22.9569 N   0  0  0  0  0  0  0  0  0  0  0  0
   10.1566  -15.7590   21.5967 C   0  0  0  0  0  0  0  0  0  0  0  0
   10.4413  -17.1853   21.3957 C   0  0  0  0  0  0  0  0  0  0  0  0
    9.9733  -18.0014   22.2267 O   0  0  0  0  0  0  0  0  0  0  0  0
   11.2128  -17.5659   20.2989 O   0  0  0  0  0  0  0  0  0  0  0  0
  2  1  1  0
  3  4  1  1
  3  2  1  0
  5  7  1  0
  5  3  1  0
  5  6  1  6
  7  8  2  0
 10  9  1  1
 10 12  1  0
 11 10  1  0
 13 12  1  6
 14  7  1  0
 14 13  1  0
 15 17  1  0
 15 13  1  0
 16 15  2  0
 18 17  1  0
 19 18  1  0
 19 21  1  0
 20 19  2  0
M  END
$$$$
