ILG.pdb
     RDKit          3D

 21 20  0  0  1  0  0  0  0  0999 V2000
    7.2868  -11.3913   27.0403 C   0  0  0  0  0  0  0  0  0  0  0  0
    7.8161  -12.8154   26.9694 C   0  0  0  0  0  0  0  0  0  0  0  0
    6.9912  -13.5957   25.9682 C   0  0  2  0  0  0  0  0  0  0  0  0
    5.5454  -13.4905   26.3109 C   0  0  0  0  0  0  0  0  0  0  0  0
    7.4845  -14.9872   25.7492 C   0  0  2  0  0  0  0  0  0  0  0  0
    8.7207  -15.1379   26.4965 N   0  0  0  0  0  0  0  0  0  0  0  0
    7.6239  -15.3696   24.3374 C   0  0  0  0  0  0  0  0  0  0  0  0
    6.6692  -15.9695   23.7791 O   0  0  0  0  0  0  0  0  0  0  0  0
    7.6418  -12.1740   20.4252 C   0  0  0  0  0  0  0  0  0  0  0  0
    7.5607  -13.5021   21.1240 C   0  0  1  0  0  0  0  0  0  0  0  0
    6.6575  -14.3715   20.2386 C   0  0  0  0  0  0  0  0  0  0  0  0
    8.8857  -14.1493   21.3310 C   0  0  0  0  0  0  0  0  0  0  0  0
    8.8278  -15.4306   22.0961 C   0  0  2  0  0  0  0  0  0  0  0  0
    8.7745  -15.1061   23.5504 N   0  0  0  0  0  0  0  0  0  0  0  0
    9.9974  -16.3135   21.9518 C   0  0  0  0  0  0  0  0  0  0  0  0
   10.3418  -16.7381   20.8000 O   0  0  0  0  0  0  0  0  0  0  0  0
   10.8162  -16.7519   23.0217 N   0  0  0  0  0  0  0  0  0  0  0  0
   11.9712  -17.6142   22.7845 C   0  0  0  0  0  0  0  0  0  0  0  0
   12.6247  -18.0139   24.0371 C   0  0  0  0  0  0  0  0  0  0  0  0
   13.8517  -17.7804   24.1610 O   0  0  0  0  0  0  0  0  0  0  0  0
   11.8583  -18.6303   25.0249 O   0  0  0  0  0  0  0  0  0  0  0  0
  2  1  1  0
  3  4  1  1
  3  2  1  0
  5  7  1  0
  5  3  1  0
  5  6  1  1
  7  8  2  0
 10  9  1  6
 10 12  1  0
 11 10  1  0
 13 12  1  6
 14  7  1  0
 14 13  1  0
 15 17  1  0
 15 13  1  0
 16 15  2  0
 18 17  1  0
 19 18  1  0
 19 21  1  0
 20 19  2  0
M  END
$$$$
