ILG.pdb
     RDKit          3D

 21 20  0  0  1  0  0  0  0  0999 V2000
   10.2114  -13.9275   29.1945 C   0  0  0  0  0  0  0  0  0  0  0  0
    9.1095  -14.7604   28.5579 C   0  0  0  0  0  0  0  0  0  0  0  0
    9.4125  -14.9303   27.0845 C   0  0  2  0  0  0  0  0  0  0  0  0
    9.8414  -13.6283   26.5017 C   0  0  0  0  0  0  0  0  0  0  0  0
    8.3282  -15.6276   26.3323 C   0  0  2  0  0  0  0  0  0  0  0  0
    7.9576  -16.8097   27.0904 N   0  0  0  0  0  0  0  0  0  0  0  0
    8.6547  -15.9300   24.9321 C   0  0  0  0  0  0  0  0  0  0  0  0
    8.6721  -17.1331   24.5642 O   0  0  0  0  0  0  0  0  0  0  0  0
    7.0081  -12.5949   20.8464 C   0  0  0  0  0  0  0  0  0  0  0  0
    7.3496  -13.8682   21.5681 C   0  0  1  0  0  0  0  0  0  0  0  0
    6.6709  -14.9849   20.7633 C   0  0  0  0  0  0  0  0  0  0  0  0
    8.8137  -14.1121   21.6876 C   0  0  0  0  0  0  0  0  0  0  0  0
    9.1701  -15.2992   22.5210 C   0  0  2  0  0  0  0  0  0  0  0  0
    8.9556  -14.9473   23.9539 N   0  0  0  0  0  0  0  0  0  0  0  0
   10.5758  -15.7316   22.4477 C   0  0  0  0  0  0  0  0  0  0  0  0
   11.0352  -16.2388   21.3719 O   0  0  0  0  0  0  0  0  0  0  0  0
   11.5097  -15.6278   23.5080 N   0  0  0  0  0  0  0  0  0  0  0  0
   12.9376  -15.8344   23.2795 C   0  0  0  0  0  0  0  0  0  0  0  0
   13.3792  -17.1612   23.7273 C   0  0  0  0  0  0  0  0  0  0  0  0
   12.5210  -18.0745   23.7964 O   0  0  0  0  0  0  0  0  0  0  0  0
   14.7220  -17.3451   24.0531 O   0  0  0  0  0  0  0  0  0  0  0  0
  2  1  1  0
  3  4  1  6
  3  2  1  0
  5  7  1  0
  5  3  1  0
  5  6  1  1
  7  8  2  0
 10  9  1  6
 10 12  1  0
 11 10  1  0
 13 12  1  6
 14  7  1  0
 14 13  1  0
 15 17  1  0
 15 13  1  0
 16 15  2  0
 18 17  1  0
 19 18  1  0
 19 21  1  0
 20 19  2  0
M  END
$$$$
