ILG.pdb
     RDKit          3D

 21 20  0  0  1  0  0  0  0  0999 V2000
    6.9602  -12.1128   28.2543 C   0  0  0  0  0  0  0  0  0  0  0  0
    6.1305  -13.1220   27.4756 C   0  0  0  0  0  0  0  0  0  0  0  0
    6.9727  -13.6854   26.3509 C   0  0  2  0  0  0  0  0  0  0  0  0
    7.6690  -12.5795   25.6361 C   0  0  0  0  0  0  0  0  0  0  0  0
    6.2282  -14.6318   25.4690 C   0  0  2  0  0  0  0  0  0  0  0  0
    5.8149  -15.7600   26.2849 N   0  0  0  0  0  0  0  0  0  0  0  0
    6.9575  -15.0413   24.2610 C   0  0  0  0  0  0  0  0  0  0  0  0
    7.4411  -16.2020   24.2141 O   0  0  0  0  0  0  0  0  0  0  0  0
    7.7588  -15.1270   18.8118 C   0  0  0  0  0  0  0  0  0  0  0  0
    8.4282  -14.0170   19.5724 C   0  0  1  0  0  0  0  0  0  0  0  0
    8.4477  -12.8209   18.6109 C   0  0  0  0  0  0  0  0  0  0  0  0
    7.7397  -13.6660   20.8452 C   0  0  0  0  0  0  0  0  0  0  0  0
    7.9281  -14.6658   21.9386 C   0  0  2  0  0  0  0  0  0  0  0  0
    7.1567  -14.2085   23.1298 N   0  0  0  0  0  0  0  0  0  0  0  0
    9.3085  -14.8269   22.4252 C   0  0  0  0  0  0  0  0  0  0  0  0
    9.8378  -13.9298   23.1605 O   0  0  0  0  0  0  0  0  0  0  0  0
   10.1401  -15.9388   22.1438 N   0  0  0  0  0  0  0  0  0  0  0  0
   11.5614  -15.9232   22.4806 C   0  0  0  0  0  0  0  0  0  0  0  0
   12.2497  -17.1335   22.0145 C   0  0  0  0  0  0  0  0  0  0  0  0
   11.5674  -18.0101   21.4300 O   0  0  0  0  0  0  0  0  0  0  0  0
   13.6200  -17.2535   22.2407 O   0  0  0  0  0  0  0  0  0  0  0  0
  2  1  1  0
  3  4  1  6
  3  2  1  0
  5  7  1  0
  5  3  1  0
  5  6  1  1
  7  8  2  0
 10  9  1  6
 10 12  1  0
 11 10  1  0
 13 12  1  6
 14  7  1  0
 14 13  1  0
 15 17  1  0
 15 13  1  0
 16 15  2  0
 18 17  1  0
 19 18  1  0
 19 21  1  0
 20 19  2  0
M  END
$$$$
