RHW.pdb
     RDKit          3D

 36 38  0  0  1  0  0  0  0  0999 V2000
    6.9318  -12.7938   18.7802 N   0  0  0  0  0  0  0  0  0  0  0  0
    8.3414  -12.8799   18.8260 C   0  0  0  0  0  0  0  0  0  0  0  0
    9.0218  -11.9495   19.3881 N   0  0  0  0  0  0  0  0  0  0  0  0
    8.9925  -13.9913   18.2489 N   0  0  0  0  0  0  0  0  0  0  0  0
    8.1670  -15.0508   17.6368 C   0  0  0  0  0  0  0  0  0  0  0  0
    8.7784  -16.3765   17.9148 C   0  0  0  0  0  0  0  0  0  0  0  0
    9.2730  -16.5198   19.2993 C   0  0  0  0  0  0  0  0  0  0  0  0
    8.8292  -17.6908   20.0866 C   0  0  2  0  0  0  0  0  0  0  0  0
    7.9136  -18.6019   19.4849 N   0  0  0  0  0  0  0  0  0  0  0  0
    8.2975  -17.2246   21.4072 C   0  0  0  0  0  0  0  0  0  0  0  0
    7.1058  -16.8921   21.4274 O   0  0  0  0  0  0  0  0  0  0  0  0
   10.0728  -11.9301   19.3223 N   0  0  0  0  0  0  0  0  0  0  0  0
    9.0779  -17.1400   22.5980 C   0  0  1  0  0  0  0  0  0  0  0  0
    8.7725  -17.7194   23.8563 C   0  0  0  0  0  0  0  0  0  0  0  0
    8.0636  -19.0779   23.7891 C   0  0  0  0  0  0  0  0  0  0  0  0
    7.8497  -19.5875   25.1651 C   0  0  0  0  0  0  0  0  0  0  0  0
    8.7187  -20.1058   26.0386 N   0  0  0  0  0  0  0  0  0  0  0  0
    8.0225  -20.4278   27.1772 C   0  0  0  0  0  0  0  0  0  0  0  0
    6.7306  -20.1062   27.0021 N   0  0  0  0  0  0  0  0  0  0  0  0
    6.6091  -19.5920   25.7780 C   0  0  0  0  0  0  0  0  0  0  0  0
    9.6714  -17.5253   24.9736 O   0  0  0  0  0  0  0  0  0  0  0  0
   10.8871  -17.9461   24.8713 N   0  0  0  0  0  0  0  0  0  0  0  0
    9.3584  -16.9117   26.1901 C   0  0  1  0  0  0  0  0  0  0  0  0
   10.2612  -16.2903   27.1421 C   0  0  0  0  0  0  0  0  0  0  0  0
    9.6972  -14.9974   27.6667 C   0  0  0  0  0  0  0  0  0  0  0  0
    8.3119  -14.7962   27.1970 C   0  0  0  0  0  0  0  0  0  0  0  0
    7.2501  -15.6705   27.1730 N   0  0  0  0  0  0  0  0  0  0  0  0
    6.1674  -15.0505   26.6519 C   0  0  0  0  0  0  0  0  0  0  0  0
    6.4726  -13.7753   26.3223 C   0  0  0  0  0  0  0  0  0  0  0  0
    5.7336  -12.7344   25.7693 C   0  0  0  0  0  0  0  0  0  0  0  0
    6.3022  -11.5077   25.5417 C   0  0  0  0  0  0  0  0  0  0  0  0
    7.6380  -11.3374   25.8792 C   0  0  0  0  0  0  0  0  0  0  0  0
    8.3791  -12.3738   26.4294 C   0  0  0  0  0  0  0  0  0  0  0  0
    7.8032  -13.5995   26.6550 C   0  0  0  0  0  0  0  0  0  0  0  0
   10.3976  -17.2265   28.2852 O   0  0  0  0  0  0  0  0  0  0  0  0
    9.7089  -18.2444   28.3924 O   0  0  0  0  0  0  0  0  0  0  0  0
  2  1  1  0
  3  2  2  0
  4  2  1  0
  5  4  1  0
  6  7  1  0
  6  5  1  0
  8  7  1  0
  8 10  1  0
  8  9  1  6
 10 11  2  0
 12 13  1  0
 12 10  1  0
 13 20  1  0
 13 14  1  1
 15 14  1  0
 16 15  2  0
 17 18  1  0
 17 16  1  0
 18 19  2  0
 19 15  1  0
 20 22  1  0
 21 20  2  0
 22 23  1  0
 23 24  1  1
 24 25  1  0
 25 33  1  0
 26 25  2  0
 26 27  1  0
 27 28  1  0
 28 29  2  0
 29 30  1  0
 31 30  2  0
 32 31  1  0
 33 32  2  0
 33 28  1  0
 34 23  1  0
 35 34  2  0
 36 34  1  0
M  END
$$$$
