RHW.pdb
     RDKit          3D

 36 38  0  0  1  0  0  0  0  0999 V2000
    9.2639  -14.1113   14.7072 N   0  0  0  0  0  0  0  0  0  0  0  0
    7.9136  -13.8088   14.9928 C   0  0  0  0  0  0  0  0  0  0  0  0
    7.1589  -13.3226   14.0771 N   0  0  0  0  0  0  0  0  0  0  0  0
    7.4043  -14.0422   16.2884 N   0  0  0  0  0  0  0  0  0  0  0  0
    8.3601  -14.2147   17.3998 C   0  0  0  0  0  0  0  0  0  0  0  0
    7.8519  -13.5065   18.6034 C   0  0  0  0  0  0  0  0  0  0  0  0
    7.9682  -14.2965   19.8461 C   0  0  0  0  0  0  0  0  0  0  0  0
    9.3209  -14.6338   20.3405 C   0  0  2  0  0  0  0  0  0  0  0  0
   10.2126  -15.3120   19.4599 N   0  0  0  0  0  0  0  0  0  0  0  0
    9.2015  -15.3859   21.6305 C   0  0  0  0  0  0  0  0  0  0  0  0
    8.2475  -15.0758   22.3550 O   0  0  0  0  0  0  0  0  0  0  0  0
    6.1481  -13.0973   14.2695 N   0  0  0  0  0  0  0  0  0  0  0  0
   10.1116  -16.4003   22.0513 C   0  0  1  0  0  0  0  0  0  0  0  0
   10.1293  -17.0566   23.3087 C   0  0  0  0  0  0  0  0  0  0  0  0
   10.5577  -18.5288   23.2651 C   0  0  0  0  0  0  0  0  0  0  0  0
    9.5997  -19.2933   22.4303 C   0  0  0  0  0  0  0  0  0  0  0  0
    8.4710  -18.9001   21.8319 N   0  0  0  0  0  0  0  0  0  0  0  0
    7.9466  -19.9867   21.1771 C   0  0  0  0  0  0  0  0  0  0  0  0
    8.7528  -21.0426   21.3727 N   0  0  0  0  0  0  0  0  0  0  0  0
    9.7668  -20.6351   22.1364 C   0  0  0  0  0  0  0  0  0  0  0  0
   10.5012  -16.3207   24.4980 O   0  0  0  0  0  0  0  0  0  0  0  0
   11.5836  -15.6185   24.4790 N   0  0  0  0  0  0  0  0  0  0  0  0
    9.7939  -16.2848   25.7033 C   0  0  1  0  0  0  0  0  0  0  0  0
   10.2724  -15.8867   27.0149 C   0  0  0  0  0  0  0  0  0  0  0  0
    9.1331  -15.4926   27.9159 C   0  0  0  0  0  0  0  0  0  0  0  0
    7.9598  -15.0653   27.1279 C   0  0  0  0  0  0  0  0  0  0  0  0
    6.9310  -15.8094   26.5985 N   0  0  0  0  0  0  0  0  0  0  0  0
    6.0732  -14.9927   25.9465 C   0  0  0  0  0  0  0  0  0  0  0  0
    6.4984  -13.7115   26.0224 C   0  0  0  0  0  0  0  0  0  0  0  0
    5.9894  -12.5115   25.5367 C   0  0  0  0  0  0  0  0  0  0  0  0
    6.6337  -11.3242   25.7719 C   0  0  0  0  0  0  0  0  0  0  0  0
    7.8098  -11.3574   26.5087 C   0  0  0  0  0  0  0  0  0  0  0  0
    8.3219  -12.5528   26.9935 C   0  0  0  0  0  0  0  0  0  0  0  0
    7.6712  -13.7379   26.7545 C   0  0  0  0  0  0  0  0  0  0  0  0
   10.9383  -17.0710   27.6115 O   0  0  0  0  0  0  0  0  0  0  0  0
   10.8929  -18.1880   27.0899 O   0  0  0  0  0  0  0  0  0  0  0  0
  2  1  1  0
  3  2  2  0
  4  2  1  0
  5  4  1  0
  6  7  1  0
  6  5  1  0
  8  7  1  0
  8 10  1  0
  8  9  1  6
 10 11  2  0
 12 13  1  0
 12 10  1  0
 13 20  1  0
 13 14  1  1
 15 14  1  0
 16 15  2  0
 17 18  1  0
 17 16  1  0
 18 19  2  0
 19 15  1  0
 20 22  1  0
 21 20  2  0
 22 23  1  0
 23 24  1  1
 24 25  1  0
 25 33  1  0
 26 25  2  0
 26 27  1  0
 27 28  1  0
 28 29  2  0
 29 30  1  0
 31 30  2  0
 32 31  1  0
 33 32  2  0
 33 28  1  0
 34 23  1  0
 35 34  2  0
 36 34  1  0
M  END
$$$$
