RHW.pdb
     RDKit          3D

 36 38  0  0  1  0  0  0  0  0999 V2000
   11.9584  -18.1402   14.4126 N   0  0  0  0  0  0  0  0  0  0  0  0
   11.6129  -16.7885   14.6358 C   0  0  0  0  0  0  0  0  0  0  0  0
   12.5032  -15.8727   14.5203 N   0  0  0  0  0  0  0  0  0  0  0  0
   10.2874  -16.4551   14.9879 N   0  0  0  0  0  0  0  0  0  0  0  0
    9.6624  -17.1605   16.1239 C   0  0  0  0  0  0  0  0  0  0  0  0
    9.9686  -16.4357   17.3847 C   0  0  0  0  0  0  0  0  0  0  0  0
    9.3366  -17.0345   18.5781 C   0  0  0  0  0  0  0  0  0  0  0  0
   10.2120  -17.5375   19.6592 C   0  0  2  0  0  0  0  0  0  0  0  0
   10.9608  -18.7268   19.4240 N   0  0  0  0  0  0  0  0  0  0  0  0
    9.4121  -17.6743   20.9184 C   0  0  0  0  0  0  0  0  0  0  0  0
    8.3626  -18.3235   20.8287 O   0  0  0  0  0  0  0  0  0  0  0  0
   12.2818  -14.8686   14.7484 N   0  0  0  0  0  0  0  0  0  0  0  0
    9.7873  -17.1014   22.1695 C   0  0  2  0  0  0  0  0  0  0  0  0
    9.9638  -17.7873   23.3986 C   0  0  0  0  0  0  0  0  0  0  0  0
   10.4982  -19.2194   23.2703 C   0  0  0  0  0  0  0  0  0  0  0  0
    9.3687  -20.1414   23.0003 C   0  0  0  0  0  0  0  0  0  0  0  0
    8.0534  -19.9656   23.1608 N   0  0  0  0  0  0  0  0  0  0  0  0
    7.4276  -21.1222   22.7667 C   0  0  0  0  0  0  0  0  0  0  0  0
    8.3572  -22.0038   22.3645 N   0  0  0  0  0  0  0  0  0  0  0  0
    9.5478  -21.4197   22.5014 C   0  0  0  0  0  0  0  0  0  0  0  0
   10.3797  -17.0561   24.5760 O   0  0  0  0  0  0  0  0  0  0  0  0
   11.5723  -16.5643   24.6110 N   0  0  0  0  0  0  0  0  0  0  0  0
    9.6069  -16.8151   25.7158 C   0  0  1  0  0  0  0  0  0  0  0  0
    9.9894  -16.1179   26.9304 C   0  0  0  0  0  0  0  0  0  0  0  0
    8.7808  -15.6645   27.7041 C   0  0  0  0  0  0  0  0  0  0  0  0
    7.7666  -15.0792   26.8045 C   0  0  0  0  0  0  0  0  0  0  0  0
    6.7294  -15.6808   26.1304 N   0  0  0  0  0  0  0  0  0  0  0  0
    6.0550  -14.7503   25.4179 C   0  0  0  0  0  0  0  0  0  0  0  0
    6.6130  -13.5315   25.5945 C   0  0  0  0  0  0  0  0  0  0  0  0
    6.3069  -12.2667   25.1030 C   0  0  0  0  0  0  0  0  0  0  0  0
    7.0511  -11.1714   25.4590 C   0  0  0  0  0  0  0  0  0  0  0  0
    8.1195  -11.3645   26.3242 C   0  0  0  0  0  0  0  0  0  0  0  0
    8.4291  -12.6250   26.8155 C   0  0  0  0  0  0  0  0  0  0  0  0
    7.6794  -13.7173   26.4550 C   0  0  0  0  0  0  0  0  0  0  0  0
   10.7329  -17.0882   27.7716 O   0  0  0  0  0  0  0  0  0  0  0  0
   11.2918  -16.7612   28.8216 O   0  0  0  0  0  0  0  0  0  0  0  0
  2  1  1  0
  3  2  2  0
  4  2  1  0
  5  4  1  0
  6  7  1  0
  6  5  1  0
  8  7  1  0
  8 10  1  0
  8  9  1  6
 10 11  2  0
 12 13  1  0
 12 10  1  0
 13 20  1  0
 13 14  1  6
 15 14  1  0
 16 15  2  0
 17 18  1  0
 17 16  1  0
 18 19  2  0
 19 15  1  0
 20 22  1  0
 21 20  2  0
 22 23  1  0
 23 24  1  1
 24 25  1  0
 25 33  1  0
 26 25  2  0
 26 27  1  0
 27 28  1  0
 28 29  2  0
 29 30  1  0
 31 30  2  0
 32 31  1  0
 33 32  2  0
 33 28  1  0
 34 23  1  0
 35 34  2  0
 36 34  1  0
M  END
$$$$
