NMG.pdb
     RDKit          3D

 21 20  0  0  1  0  0  0  0  0999 V2000
    9.3724  -17.4335   18.0790 N   0  0  0  0  0  0  0  0  0  0  0  0
    8.5009  -16.3289   18.2701 C   0  0  0  0  0  0  0  0  0  0  0  0
    7.6404  -16.1166   17.3801 O   0  0  0  0  0  0  0  0  0  0  0  0
    8.6001  -15.4542   19.4769 C   0  0  0  0  0  0  0  0  0  0  0  0
    8.4315  -16.3170   20.6869 C   0  0  2  0  0  0  0  0  0  0  0  0
    7.1048  -16.8376   20.7782 N   0  0  0  0  0  0  0  0  0  0  0  0
    8.8813  -15.6529   21.9382 C   0  0  0  0  0  0  0  0  0  0  0  0
   10.0728  -15.2245   22.0363 O   0  0  0  0  0  0  0  0  0  0  0  0
    6.2664  -12.2675   27.2168 C   0  0  0  0  0  0  0  0  0  0  0  0
    6.9211  -11.6340   25.6501 S   0  0  0  0  0  0  0  0  0  0  0  0
    7.0922  -12.9579   24.4437 C   0  0  0  0  0  0  0  0  0  0  0  0
    7.4898  -14.2615   24.9965 C   0  0  0  0  0  0  0  0  0  0  0  0
    8.5722  -15.0499   24.3857 C   0  0  2  0  0  0  0  0  0  0  0  0
    8.0328  -15.4682   23.0537 N   0  0  0  0  0  0  0  0  0  0  0  0
    9.0603  -16.2430   25.0949 C   0  0  0  0  0  0  0  0  0  0  0  0
    8.3560  -17.2527   25.2909 O   0  0  0  0  0  0  0  0  0  0  0  0
   10.3899  -16.3206   25.6108 N   0  0  0  0  0  0  0  0  0  0  0  0
   10.9767  -17.5425   26.1214 C   0  0  0  0  0  0  0  0  0  0  0  0
   10.7576  -17.7382   27.5472 C   0  0  0  0  0  0  0  0  0  0  0  0
    9.6137  -17.6227   28.0323 O   0  0  0  0  0  0  0  0  0  0  0  0
   11.8061  -18.0537   28.3846 O   0  0  0  0  0  0  0  0  0  0  0  0
  2  1  1  0
  2  3  2  0
  4  2  1  0
  5  4  1  0
  5  6  1  1
  7 14  1  0
  7  5  1  0
  8  7  2  0
 10  9  1  0
 10 11  1  0
 11 12  1  0
 13 12  1  1
 13 14  1  0
 13 15  1  0
 15 17  1  0
 15 16  2  0
 17 18  1  0
 18 19  1  0
 19 21  1  0
 20 19  2  0
M  END
$$$$
