NMG.pdb
     RDKit          3D

 21 20  0  0  1  0  0  0  0  0999 V2000
    7.2079  -13.3150   17.2841 N   0  0  0  0  0  0  0  0  0  0  0  0
    8.2135  -13.8800   18.1121 C   0  0  0  0  0  0  0  0  0  0  0  0
    8.9567  -14.7522   17.5979 O   0  0  0  0  0  0  0  0  0  0  0  0
    8.3834  -13.4577   19.5348 C   0  0  0  0  0  0  0  0  0  0  0  0
    8.3805  -14.6884   20.3848 C   0  0  2  0  0  0  0  0  0  0  0  0
    7.1889  -15.4526   20.1959 N   0  0  0  0  0  0  0  0  0  0  0  0
    8.6665  -14.4041   21.8153 C   0  0  0  0  0  0  0  0  0  0  0  0
    9.7372  -13.8039   22.1413 O   0  0  0  0  0  0  0  0  0  0  0  0
    6.5834  -11.3442   28.1616 C   0  0  0  0  0  0  0  0  0  0  0  0
    6.7760  -11.7905   26.4156 S   0  0  0  0  0  0  0  0  0  0  0  0
    6.4810  -13.5477   26.1659 C   0  0  0  0  0  0  0  0  0  0  0  0
    6.6748  -14.0259   24.7886 C   0  0  0  0  0  0  0  0  0  0  0  0
    8.0181  -14.3299   24.2696 C   0  0  2  0  0  0  0  0  0  0  0  0
    7.7889  -14.7758   22.8593 N   0  0  0  0  0  0  0  0  0  0  0  0
    8.8267  -15.3457   24.9618 C   0  0  0  0  0  0  0  0  0  0  0  0
    9.1417  -15.2596   26.1648 O   0  0  0  0  0  0  0  0  0  0  0  0
    9.3084  -16.5104   24.2898 N   0  0  0  0  0  0  0  0  0  0  0  0
   10.0594  -17.5582   24.9501 C   0  0  0  0  0  0  0  0  0  0  0  0
   11.5017  -17.3865   24.8524 C   0  0  0  0  0  0  0  0  0  0  0  0
   11.9862  -16.2805   24.5373 O   0  0  0  0  0  0  0  0  0  0  0  0
   12.3554  -18.4387   25.1052 O   0  0  0  0  0  0  0  0  0  0  0  0
  2  1  1  0
  2  3  2  0
  4  2  1  0
  5  4  1  0
  5  6  1  1
  7 14  1  0
  7  5  1  0
  8  7  2  0
 10  9  1  0
 10 11  1  0
 11 12  1  0
 13 12  1  1
 13 14  1  0
 13 15  1  0
 15 17  1  0
 15 16  2  0
 17 18  1  0
 18 19  1  0
 19 21  1  0
 20 19  2  0
M  END
$$$$
