NMG.pdb
     RDKit          3D

 21 20  0  0  1  0  0  0  0  0999 V2000
    7.6126  -16.6914   18.9327 N   0  0  0  0  0  0  0  0  0  0  0  0
    6.9366  -17.4663   19.9119 C   0  0  0  0  0  0  0  0  0  0  0  0
    6.2291  -18.4192   19.5009 O   0  0  0  0  0  0  0  0  0  0  0  0
    7.0593  -17.1641   21.3696 C   0  0  0  0  0  0  0  0  0  0  0  0
    7.9795  -15.9950   21.5224 C   0  0  2  0  0  0  0  0  0  0  0  0
    9.0713  -16.0643   20.6044 N   0  0  0  0  0  0  0  0  0  0  0  0
    8.4156  -15.7818   22.9272 C   0  0  0  0  0  0  0  0  0  0  0  0
    9.6535  -15.7380   23.2077 O   0  0  0  0  0  0  0  0  0  0  0  0
    6.6355  -10.0141   26.0713 C   0  0  0  0  0  0  0  0  0  0  0  0
    6.1600  -11.7322   26.3977 S   0  0  0  0  0  0  0  0  0  0  0  0
    7.2974  -12.8757   25.6000 C   0  0  0  0  0  0  0  0  0  0  0  0
    7.0589  -14.2984   25.8866 C   0  0  0  0  0  0  0  0  0  0  0  0
    7.9724  -15.3394   25.3883 C   0  0  2  0  0  0  0  0  0  0  0  0
    7.5035  -15.6215   23.9952 N   0  0  0  0  0  0  0  0  0  0  0  0
    8.0599  -16.6101   26.1249 C   0  0  0  0  0  0  0  0  0  0  0  0
    8.3646  -16.6765   27.3318 O   0  0  0  0  0  0  0  0  0  0  0  0
    7.7979  -17.8649   25.4947 N   0  0  0  0  0  0  0  0  0  0  0  0
    7.7883  -19.1270   26.2054 C   0  0  0  0  0  0  0  0  0  0  0  0
    9.1134  -19.5732   26.6109 C   0  0  0  0  0  0  0  0  0  0  0  0
   10.1232  -18.9007   26.3189 O   0  0  0  0  0  0  0  0  0  0  0  0
    9.2763  -20.7425   27.3222 O   0  0  0  0  0  0  0  0  0  0  0  0
  2  1  1  0
  2  3  2  0
  4  2  1  0
  5  4  1  0
  5  6  1  6
  7 14  1  0
  7  5  1  0
  8  7  2  0
 10  9  1  0
 10 11  1  0
 11 12  1  0
 13 12  1  1
 13 14  1  0
 13 15  1  0
 15 17  1  0
 15 16  2  0
 17 18  1  0
 18 19  1  0
 19 21  1  0
 20 19  2  0
M  END
$$$$
