NMG.pdb
     RDKit          3D

 21 20  0  0  1  0  0  0  0  0999 V2000
    8.5480  -16.2160   17.3094 N   0  0  0  0  0  0  0  0  0  0  0  0
    7.8746  -16.5069   18.5251 C   0  0  0  0  0  0  0  0  0  0  0  0
    7.1654  -17.5430   18.5542 O   0  0  0  0  0  0  0  0  0  0  0  0
    8.0017  -15.6206   19.7208 C   0  0  0  0  0  0  0  0  0  0  0  0
    8.4393  -16.4642   20.8758 C   0  0  2  0  0  0  0  0  0  0  0  0
    7.5140  -17.5212   21.1326 N   0  0  0  0  0  0  0  0  0  0  0  0
    8.7579  -15.6651   22.0878 C   0  0  0  0  0  0  0  0  0  0  0  0
    9.6121  -14.7275   22.0233 O   0  0  0  0  0  0  0  0  0  0  0  0
    5.8927  -10.9214   26.0761 C   0  0  0  0  0  0  0  0  0  0  0  0
    7.0196  -12.3352   26.2019 S   0  0  0  0  0  0  0  0  0  0  0  0
    6.4510  -13.7024   25.1798 C   0  0  0  0  0  0  0  0  0  0  0  0
    7.2443  -14.9363   25.2863 C   0  0  0  0  0  0  0  0  0  0  0  0
    8.5088  -15.0950   24.5500 C   0  0  2  0  0  0  0  0  0  0  0  0
    8.1462  -15.8988   23.3406 N   0  0  0  0  0  0  0  0  0  0  0  0
    9.6413  -15.7446   25.2283 C   0  0  0  0  0  0  0  0  0  0  0  0
   10.2740  -15.2090   26.1592 O   0  0  0  0  0  0  0  0  0  0  0  0
   10.0935  -17.0479   24.8576 N   0  0  0  0  0  0  0  0  0  0  0  0
   11.2117  -17.7140   25.4930 C   0  0  0  0  0  0  0  0  0  0  0  0
   10.8546  -18.3917   26.7310 C   0  0  0  0  0  0  0  0  0  0  0  0
    9.6723  -18.3969   27.1299 O   0  0  0  0  0  0  0  0  0  0  0  0
   11.8127  -19.0377   27.4825 O   0  0  0  0  0  0  0  0  0  0  0  0
  2  1  1  0
  2  3  2  0
  4  2  1  0
  5  4  1  0
  5  6  1  1
  7 14  1  0
  7  5  1  0
  8  7  2  0
 10  9  1  0
 10 11  1  0
 11 12  1  0
 13 12  1  1
 13 14  1  0
 13 15  1  0
 15 17  1  0
 15 16  2  0
 17 18  1  0
 18 19  1  0
 19 21  1  0
 20 19  2  0
M  END
$$$$
