NMG.pdb
     RDKit          3D

 21 20  0  0  1  0  0  0  0  0999 V2000
    8.5793  -12.5992   17.7073 N   0  0  0  0  0  0  0  0  0  0  0  0
    7.9539  -13.6167   18.4751 C   0  0  0  0  0  0  0  0  0  0  0  0
    7.6266  -14.6697   17.8737 O   0  0  0  0  0  0  0  0  0  0  0  0
    7.6946  -13.4458   19.9362 C   0  0  0  0  0  0  0  0  0  0  0  0
    8.4972  -14.4725   20.6703 C   0  0  2  0  0  0  0  0  0  0  0  0
    7.9964  -15.7903   20.4419 N   0  0  0  0  0  0  0  0  0  0  0  0
    8.6603  -14.1561   22.1133 C   0  0  0  0  0  0  0  0  0  0  0  0
    9.2615  -13.0945   22.4662 O   0  0  0  0  0  0  0  0  0  0  0  0
    6.3563  -10.6604   27.2648 C   0  0  0  0  0  0  0  0  0  0  0  0
    6.8073  -12.4100   27.1233 S   0  0  0  0  0  0  0  0  0  0  0  0
    6.8635  -12.9211   25.3991 C   0  0  0  0  0  0  0  0  0  0  0  0
    7.1960  -14.3363   25.1757 C   0  0  0  0  0  0  0  0  0  0  0  0
    8.4826  -14.7318   24.5803 C   0  0  2  0  0  0  0  0  0  0  0  0
    8.1702  -14.9947   23.1404 N   0  0  0  0  0  0  0  0  0  0  0  0
    9.1843  -15.9007   25.1337 C   0  0  0  0  0  0  0  0  0  0  0  0
    9.5089  -15.9932   26.3336 O   0  0  0  0  0  0  0  0  0  0  0  0
    9.5430  -17.0182   24.3195 N   0  0  0  0  0  0  0  0  0  0  0  0
   10.1365  -18.2299   24.8461 C   0  0  0  0  0  0  0  0  0  0  0  0
   11.5742  -18.3109   24.6319 C   0  0  0  0  0  0  0  0  0  0  0  0
   12.3350  -17.4502   25.1192 O   0  0  0  0  0  0  0  0  0  0  0  0
   12.1194  -19.3363   23.8894 O   0  0  0  0  0  0  0  0  0  0  0  0
  2  1  1  0
  2  3  2  0
  4  2  1  0
  5  4  1  0
  5  6  1  1
  7 14  1  0
  7  5  1  0
  8  7  2  0
 10  9  1  0
 10 11  1  0
 11 12  1  0
 13 12  1  1
 13 14  1  0
 13 15  1  0
 15 17  1  0
 15 16  2  0
 17 18  1  0
 18 19  1  0
 19 21  1  0
 20 19  2  0
M  END
$$$$
