NMG.pdb
     RDKit          3D

 21 20  0  0  1  0  0  0  0  0999 V2000
    7.9214  -17.6979   17.9881 N   0  0  0  0  0  0  0  0  0  0  0  0
    6.9663  -17.3254   18.9707 C   0  0  0  0  0  0  0  0  0  0  0  0
    5.8589  -17.9174   18.9474 O   0  0  0  0  0  0  0  0  0  0  0  0
    7.2626  -16.2747   19.9901 C   0  0  0  0  0  0  0  0  0  0  0  0
    7.8920  -16.9425   21.1713 C   0  0  2  0  0  0  0  0  0  0  0  0
    6.9883  -17.8501   21.8029 N   0  0  0  0  0  0  0  0  0  0  0  0
    8.5050  -15.9786   22.1221 C   0  0  0  0  0  0  0  0  0  0  0  0
    9.4374  -15.2091   21.7330 O   0  0  0  0  0  0  0  0  0  0  0  0
    6.9480  -11.2997   26.8824 C   0  0  0  0  0  0  0  0  0  0  0  0
    5.8716  -12.4840   26.0319 S   0  0  0  0  0  0  0  0  0  0  0  0
    6.7808  -13.3844   24.7670 C   0  0  0  0  0  0  0  0  0  0  0  0
    7.7070  -14.4096   25.2715 C   0  0  0  0  0  0  0  0  0  0  0  0
    8.7853  -14.9450   24.4248 C   0  0  2  0  0  0  0  0  0  0  0  0
    8.0961  -15.8697   23.4710 N   0  0  0  0  0  0  0  0  0  0  0  0
    9.8925  -15.6686   25.0693 C   0  0  0  0  0  0  0  0  0  0  0  0
   10.7595  -15.1044   25.7649 O   0  0  0  0  0  0  0  0  0  0  0  0
   10.0460  -17.0825   24.9365 N   0  0  0  0  0  0  0  0  0  0  0  0
   11.0703  -17.8410   25.6245 C   0  0  0  0  0  0  0  0  0  0  0  0
   10.7397  -18.1351   27.0114 C   0  0  0  0  0  0  0  0  0  0  0  0
    9.6485  -17.7673   27.4924 O   0  0  0  0  0  0  0  0  0  0  0  0
   11.6228  -18.8227   27.8159 O   0  0  0  0  0  0  0  0  0  0  0  0
  2  1  1  0
  2  3  2  0
  4  2  1  0
  5  4  1  0
  5  6  1  1
  7 14  1  0
  7  5  1  0
  8  7  2  0
 10  9  1  0
 10 11  1  0
 11 12  1  0
 13 12  1  1
 13 14  1  0
 13 15  1  0
 15 17  1  0
 15 16  2  0
 17 18  1  0
 18 19  1  0
 19 21  1  0
 20 19  2  0
M  END
$$$$
