NMG.pdb
     RDKit          3D

 21 20  0  0  1  0  0  0  0  0999 V2000
   11.5726  -17.1548   12.8284 N   0  0  0  0  0  0  0  0  0  0  0  0
   10.8440  -16.9087   14.0220 C   0  0  0  0  0  0  0  0  0  0  0  0
    9.7284  -17.4736   14.1397 O   0  0  0  0  0  0  0  0  0  0  0  0
   11.3782  -16.0166   15.0944 C   0  0  0  0  0  0  0  0  0  0  0  0
   11.2808  -16.7492   16.3948 C   0  0  2  0  0  0  0  0  0  0  0  0
   10.0122  -17.3882   16.5421 N   0  0  0  0  0  0  0  0  0  0  0  0
   11.6441  -15.9050   17.5629 C   0  0  0  0  0  0  0  0  0  0  0  0
   12.8407  -15.5054   17.7093 O   0  0  0  0  0  0  0  0  0  0  0  0
    7.4124  -12.3056   21.0115 C   0  0  0  0  0  0  0  0  0  0  0  0
    7.9915  -11.8945   19.3441 S   0  0  0  0  0  0  0  0  0  0  0  0
    9.5354  -12.7410   18.9738 C   0  0  0  0  0  0  0  0  0  0  0  0
    9.9226  -13.7861   19.9335 C   0  0  0  0  0  0  0  0  0  0  0  0
   11.0970  -14.6409   19.6964 C   0  0  2  0  0  0  0  0  0  0  0  0
   10.7058  -15.5135   18.5450 N   0  0  0  0  0  0  0  0  0  0  0  0
   11.5799  -15.4936   20.7940 C   0  0  0  0  0  0  0  0  0  0  0  0
   10.8879  -16.3919   21.3117 O   0  0  0  0  0  0  0  0  0  0  0  0
   12.8899  -15.3434   21.3433 N   0  0  0  0  0  0  0  0  0  0  0  0
   13.3683  -16.1005   22.4816 C   0  0  0  0  0  0  0  0  0  0  0  0
   14.7247  -15.7524   22.8797 C   0  0  0  0  0  0  0  0  0  0  0  0
   15.4179  -14.9975   22.1679 O   0  0  0  0  0  0  0  0  0  0  0  0
   15.2660  -16.2485   24.0463 O   0  0  0  0  0  0  0  0  0  0  0  0
  2  1  1  0
  2  3  2  0
  4  2  1  0
  5  4  1  0
  5  6  1  1
  7 14  1  0
  7  5  1  0
  8  7  2  0
 10  9  1  0
 10 11  1  0
 11 12  1  0
 13 12  1  1
 13 14  1  0
 13 15  1  0
 15 17  1  0
 15 16  2  0
 17 18  1  0
 18 19  1  0
 19 21  1  0
 20 19  2  0
M  END
$$$$
