CMV.pdb
     RDKit          3D

 22 21  0  0  1  0  0  0  0  0999 V2000
   28.7396  -20.9899  -16.0481 N   0  0  0  0  0  0  0  0  0  0  0  0
   28.1660  -20.1471  -15.0189 C   0  0  1  0  0  0  0  0  0  0  0  0
   27.6596  -18.8983  -15.6646 C   0  0  0  0  0  0  0  0  0  0  0  0
   29.0791  -17.7797  -15.9118 S   0  0  0  0  0  0  0  0  0  0  0  0
   27.1079  -20.8532  -14.2550 C   0  0  0  0  0  0  0  0  0  0  0  0
   26.3866  -21.6654  -14.8432 O   0  0  0  0  0  0  0  0  0  0  0  0
   26.2105  -19.2466   -7.7862 C   0  0  0  0  0  0  0  0  0  0  0  0
   25.6156  -20.9459   -7.9371 S   0  0  0  0  0  0  0  0  0  0  0  0
   25.0652  -21.2589   -9.6660 C   0  0  0  0  0  0  0  0  0  0  0  0
   26.1135  -20.7890  -10.6108 C   0  0  0  0  0  0  0  0  0  0  0  0
   25.8609  -20.9706  -12.0507 C   0  0  2  0  0  0  0  0  0  0  0  0
   26.9431  -20.5893  -12.8825 N   0  0  0  0  0  0  0  0  0  0  0  0
   24.5199  -20.5094  -12.4525 C   0  0  0  0  0  0  0  0  0  0  0  0
   24.3479  -19.2624  -12.5367 O   0  0  0  0  0  0  0  0  0  0  0  0
   21.8040  -22.7412  -14.6049 C   0  0  0  0  0  0  0  0  0  0  0  0
   21.8050  -21.2310  -14.5931 C   0  0  2  0  0  0  0  0  0  0  0  0
   22.9229  -20.7632  -15.5017 C   0  0  0  0  0  0  0  0  0  0  0  0
   22.1261  -20.7627  -13.1912 C   0  0  2  0  0  0  0  0  0  0  0  0
   23.4109  -21.3301  -12.7461 N   0  0  0  0  0  0  0  0  0  0  0  0
   21.1012  -21.2060  -12.2241 C   0  0  0  0  0  0  0  0  0  0  0  0
   21.3889  -22.0554  -11.3474 O   0  0  0  0  0  0  0  0  0  0  0  0
   19.8100  -20.6664  -12.2987 O   0  0  0  0  0  0  0  0  0  0  0  0
  2  1  1  6
  2  3  1  0
  4  3  1  0
  5 12  1  0
  5  2  1  0
  6  5  2  0
  8  7  1  0
  9  8  1  0
  9 10  1  0
 11 10  1  1
 11 13  1  0
 11 12  1  0
 13 19  1  0
 14 13  2  0
 16 15  1  1
 16 17  1  0
 18 20  1  0
 18 16  1  0
 18 19  1  1
 20 22  1  0
 21 20  2  0
M  END
$$$$
