CMV.pdb
     RDKit          3D

 22 21  0  0  1  0  0  0  0  0999 V2000
   17.7191  -12.5976  -17.1207 N   0  0  0  0  0  0  0  0  0  0  0  0
   17.2921  -11.2963  -16.6489 C   0  0  1  0  0  0  0  0  0  0  0  0
   16.6834  -11.4658  -15.2947 C   0  0  0  0  0  0  0  0  0  0  0  0
   14.9967  -12.1240  -15.5167 S   0  0  0  0  0  0  0  0  0  0  0  0
   18.4081  -10.3185  -16.6444 C   0  0  0  0  0  0  0  0  0  0  0  0
   19.5076  -10.6678  -16.2028 O   0  0  0  0  0  0  0  0  0  0  0  0
   20.4408   -5.5017  -21.0178 C   0  0  0  0  0  0  0  0  0  0  0  0
   19.1023   -6.7056  -21.1700 S   0  0  0  0  0  0  0  0  0  0  0  0
   19.1884   -7.9077  -19.7781 C   0  0  0  0  0  0  0  0  0  0  0  0
   19.0355   -7.1821  -18.4887 C   0  0  0  0  0  0  0  0  0  0  0  0
   19.1469   -7.9697  -17.2487 C   0  0  2  0  0  0  0  0  0  0  0  0
   18.1993   -9.0178  -17.1398 N   0  0  0  0  0  0  0  0  0  0  0  0
   19.3422   -7.1245  -16.0572 C   0  0  0  0  0  0  0  0  0  0  0  0
   18.3027   -6.6764  -15.5001 O   0  0  0  0  0  0  0  0  0  0  0  0
   22.7458   -7.1795  -13.7940 C   0  0  0  0  0  0  0  0  0  0  0  0
   21.4375   -6.7263  -13.1909 C   0  0  2  0  0  0  0  0  0  0  0  0
   20.6430   -7.9640  -12.8291 C   0  0  0  0  0  0  0  0  0  0  0  0
   20.6587   -5.9727  -14.2460 C   0  0  2  0  0  0  0  0  0  0  0  0
   20.5806   -6.7656  -15.4853 N   0  0  0  0  0  0  0  0  0  0  0  0
   21.3133   -4.6946  -14.5927 C   0  0  0  0  0  0  0  0  0  0  0  0
   21.8640   -4.5526  -15.7105 O   0  0  0  0  0  0  0  0  0  0  0  0
   21.3096   -3.6481  -13.6606 O   0  0  0  0  0  0  0  0  0  0  0  0
  2  1  1  1
  2  3  1  0
  4  3  1  0
  5 12  1  0
  5  2  1  0
  6  5  2  0
  8  7  1  0
  9  8  1  0
  9 10  1  0
 11 10  1  6
 11 13  1  0
 11 12  1  0
 13 19  1  0
 14 13  2  0
 16 15  1  6
 16 17  1  0
 18 20  1  0
 18 16  1  0
 18 19  1  6
 20 22  1  0
 21 20  2  0
M  END
$$$$
