CMV.pdb
     RDKit          3D

 22 21  0  0  1  0  0  0  0  0999 V2000
   28.9759  -20.7945  -15.6471 N   0  0  0  0  0  0  0  0  0  0  0  0
   28.2771  -19.9922  -14.6639 C   0  0  1  0  0  0  0  0  0  0  0  0
   27.6537  -18.8296  -15.3659 C   0  0  0  0  0  0  0  0  0  0  0  0
   28.9152  -17.5199  -15.5105 S   0  0  0  0  0  0  0  0  0  0  0  0
   27.2816  -20.7913  -13.9078 C   0  0  0  0  0  0  0  0  0  0  0  0
   26.6213  -21.6462  -14.5069 O   0  0  0  0  0  0  0  0  0  0  0  0
   26.9548  -19.4995   -7.6612 C   0  0  0  0  0  0  0  0  0  0  0  0
   25.5566  -20.6434   -7.6359 S   0  0  0  0  0  0  0  0  0  0  0  0
   25.1168  -21.1231   -9.3582 C   0  0  0  0  0  0  0  0  0  0  0  0
   26.1897  -20.6741  -10.2853 C   0  0  0  0  0  0  0  0  0  0  0  0
   26.0138  -20.9638  -11.7189 C   0  0  2  0  0  0  0  0  0  0  0  0
   27.1056  -20.5653  -12.5298 N   0  0  0  0  0  0  0  0  0  0  0  0
   24.6655  -20.6197  -12.2045 C   0  0  0  0  0  0  0  0  0  0  0  0
   24.4480  -19.4053  -12.4688 O   0  0  0  0  0  0  0  0  0  0  0  0
   21.0154  -21.7552  -15.1250 C   0  0  0  0  0  0  0  0  0  0  0  0
   22.3039  -22.0704  -14.4031 C   0  0  2  0  0  0  0  0  0  0  0  0
   22.2097  -23.4925  -13.8905 C   0  0  0  0  0  0  0  0  0  0  0  0
   22.4173  -21.1563  -13.2034 C   0  0  2  0  0  0  0  0  0  0  0  0
   23.5954  -21.5184  -12.3962 N   0  0  0  0  0  0  0  0  0  0  0  0
   21.2382  -21.2720  -12.3210 C   0  0  0  0  0  0  0  0  0  0  0  0
   21.3421  -21.8283  -11.2017 O   0  0  0  0  0  0  0  0  0  0  0  0
   20.0086  -20.7537  -12.7491 O   0  0  0  0  0  0  0  0  0  0  0  0
  2  1  1  6
  2  3  1  0
  4  3  1  0
  5 12  1  0
  5  2  1  0
  6  5  2  0
  8  7  1  0
  9  8  1  0
  9 10  1  0
 11 10  1  1
 11 13  1  0
 11 12  1  0
 13 19  1  0
 14 13  2  0
 16 15  1  1
 16 17  1  0
 18 20  1  0
 18 16  1  0
 18 19  1  1
 20 22  1  0
 21 20  2  0
M  END
$$$$
