CMV.pdb
     RDKit          3D

 22 21  0  0  1  0  0  0  0  0999 V2000
   28.1311  -24.3474  -17.1026 N   0  0  0  0  0  0  0  0  0  0  0  0
   28.4454  -25.7012  -17.5110 C   0  0  1  0  0  0  0  0  0  0  0  0
   29.8747  -25.9732  -17.1701 C   0  0  0  0  0  0  0  0  0  0  0  0
   30.3413  -27.5613  -17.9365 S   0  0  0  0  0  0  0  0  0  0  0  0
   27.5240  -26.6895  -16.8981 C   0  0  0  0  0  0  0  0  0  0  0  0
   27.3510  -26.6677  -15.6752 O   0  0  0  0  0  0  0  0  0  0  0  0
   21.4504  -29.0116  -17.1116 C   0  0  0  0  0  0  0  0  0  0  0  0
   22.1132  -27.4984  -17.8431 S   0  0  0  0  0  0  0  0  0  0  0  0
   23.8887  -27.3173  -17.3907 C   0  0  0  0  0  0  0  0  0  0  0  0
   24.6230  -28.5550  -17.7665 C   0  0  0  0  0  0  0  0  0  0  0  0
   26.0150  -28.6863  -17.3025 C   0  0  2  0  0  0  0  0  0  0  0  0
   26.8657  -27.6297  -17.7126 N   0  0  0  0  0  0  0  0  0  0  0  0
   26.5360  -30.0564  -17.4569 C   0  0  0  0  0  0  0  0  0  0  0  0
   27.3161  -30.2632  -18.4266 O   0  0  0  0  0  0  0  0  0  0  0  0
   26.2113  -32.8954  -14.5043 C   0  0  0  0  0  0  0  0  0  0  0  0
   27.3398  -33.0334  -15.4984 C   0  0  2  0  0  0  0  0  0  0  0  0
   28.4925  -32.1813  -15.0091 C   0  0  0  0  0  0  0  0  0  0  0  0
   26.8821  -32.4690  -16.8249 C   0  0  2  0  0  0  0  0  0  0  0  0
   26.2404  -31.1576  -16.6266 N   0  0  0  0  0  0  0  0  0  0  0  0
   25.8824  -33.3447  -17.4700 C   0  0  0  0  0  0  0  0  0  0  0  0
   24.6776  -32.9992  -17.5130 O   0  0  0  0  0  0  0  0  0  0  0  0
   26.2969  -34.5600  -18.0313 O   0  0  0  0  0  0  0  0  0  0  0  0
  2  1  1  1
  2  3  1  0
  4  3  1  0
  5 12  1  0
  5  2  1  0
  6  5  2  0
  8  7  1  0
  9  8  1  0
  9 10  1  0
 11 10  1  6
 11 13  1  0
 11 12  1  0
 13 19  1  0
 14 13  2  0
 16 15  1  1
 16 17  1  0
 18 20  1  0
 18 16  1  0
 18 19  1  1
 20 22  1  0
 21 20  2  0
M  END
$$$$
