CMV.pdb
     RDKit          3D

 22 21  0  0  1  0  0  0  0  0999 V2000
   20.8986  -13.7218  -16.0231 N   0  0  0  0  0  0  0  0  0  0  0  0
   20.1881  -12.6072  -16.6157 C   0  0  1  0  0  0  0  0  0  0  0  0
   18.7246  -12.9050  -16.5658 C   0  0  0  0  0  0  0  0  0  0  0  0
   18.3981  -14.3023  -17.6920 S   0  0  0  0  0  0  0  0  0  0  0  0
   20.5231  -11.3240  -15.9504 C   0  0  0  0  0  0  0  0  0  0  0  0
   20.1200  -11.1237  -14.8000 O   0  0  0  0  0  0  0  0  0  0  0  0
   26.3487  -10.1437  -15.4195 C   0  0  0  0  0  0  0  0  0  0  0  0
   24.9213  -10.8624  -14.5768 S   0  0  0  0  0  0  0  0  0  0  0  0
   23.5853   -9.6033  -14.4366 C   0  0  0  0  0  0  0  0  0  0  0  0
   23.2059   -9.1323  -15.7954 C   0  0  0  0  0  0  0  0  0  0  0  0
   21.7728   -9.1259  -16.1366 C   0  0  2  0  0  0  0  0  0  0  0  0
   21.2892  -10.3616  -16.6343 N   0  0  0  0  0  0  0  0  0  0  0  0
   21.3710   -7.9119  -16.8694 C   0  0  0  0  0  0  0  0  0  0  0  0
   21.7058   -7.8426  -18.0838 O   0  0  0  0  0  0  0  0  0  0  0  0
   18.0963   -5.6570  -16.1065 C   0  0  0  0  0  0  0  0  0  0  0  0
   18.8211   -5.6138  -17.4308 C   0  0  2  0  0  0  0  0  0  0  0  0
   18.4618   -6.8715  -18.1945 C   0  0  0  0  0  0  0  0  0  0  0  0
   20.3095   -5.6478  -17.1641 C   0  0  2  0  0  0  0  0  0  0  0  0
   20.6530   -6.8195  -16.3396 N   0  0  0  0  0  0  0  0  0  0  0  0
   20.7537   -4.4518  -16.4194 C   0  0  0  0  0  0  0  0  0  0  0  0
   21.0928   -4.5498  -15.2160 O   0  0  0  0  0  0  0  0  0  0  0  0
   20.7916   -3.2127  -17.0730 O   0  0  0  0  0  0  0  0  0  0  0  0
  2  1  1  1
  2  3  1  0
  4  3  1  0
  5 12  1  0
  5  2  1  0
  6  5  2  0
  8  7  1  0
  9  8  1  0
  9 10  1  0
 11 10  1  6
 11 13  1  0
 11 12  1  0
 13 19  1  0
 14 13  2  0
 16 15  1  1
 16 17  1  0
 18 20  1  0
 18 16  1  0
 18 19  1  1
 20 22  1  0
 21 20  2  0
M  END
$$$$
