CMV.pdb
     RDKit          3D

 22 21  0  0  1  0  0  0  0  0999 V2000
   19.9118  -20.0067  -12.9910 N   0  0  0  0  0  0  0  0  0  0  0  0
   20.9132  -21.0222  -12.7374 C   0  0  1  0  0  0  0  0  0  0  0  0
   20.7533  -22.1026  -13.7573 C   0  0  0  0  0  0  0  0  0  0  0  0
   19.7949  -23.4550  -12.9958 S   0  0  0  0  0  0  0  0  0  0  0  0
   22.2841  -20.4546  -12.7308 C   0  0  0  0  0  0  0  0  0  0  0  0
   22.5266  -19.4686  -13.4342 O   0  0  0  0  0  0  0  0  0  0  0  0
   25.6458  -20.3564   -7.5796 C   0  0  0  0  0  0  0  0  0  0  0  0
   27.1071  -20.7617   -8.5617 S   0  0  0  0  0  0  0  0  0  0  0  0
   26.6993  -20.6530  -10.3538 C   0  0  0  0  0  0  0  0  0  0  0  0
   25.2867  -21.0682  -10.5650 C   0  0  0  0  0  0  0  0  0  0  0  0
   24.6440  -20.6715  -11.8298 C   0  0  2  0  0  0  0  0  0  0  0  0
   23.2801  -21.0432  -11.9293 N   0  0  0  0  0  0  0  0  0  0  0  0
   25.4929  -20.9399  -13.0044 C   0  0  0  0  0  0  0  0  0  0  0  0
   25.5174  -22.1272  -13.4302 O   0  0  0  0  0  0  0  0  0  0  0  0
   28.2801  -18.2757  -14.7309 C   0  0  0  0  0  0  0  0  0  0  0  0
   27.4003  -19.0702  -15.6666 C   0  0  2  0  0  0  0  0  0  0  0  0
   26.1610  -18.2455  -15.9461 C   0  0  0  0  0  0  0  0  0  0  0  0
   26.9620  -20.3319  -14.9569 C   0  0  2  0  0  0  0  0  0  0  0  0
   26.2836  -19.9962  -13.6929 N   0  0  0  0  0  0  0  0  0  0  0  0
   28.1155  -21.1882  -14.6126 C   0  0  0  0  0  0  0  0  0  0  0  0
   28.5102  -21.2645  -13.4246 O   0  0  0  0  0  0  0  0  0  0  0  0
   28.7588  -21.9110  -15.6263 O   0  0  0  0  0  0  0  0  0  0  0  0
  2  1  1  6
  2  3  1  0
  4  3  1  0
  5 12  1  0
  5  2  1  0
  6  5  2  0
  8  7  1  0
  9  8  1  0
  9 10  1  0
 11 10  1  1
 11 13  1  0
 11 12  1  0
 13 19  1  0
 14 13  2  0
 16 15  1  1
 16 17  1  0
 18 20  1  0
 18 16  1  0
 18 19  1  1
 20 22  1  0
 21 20  2  0
M  END
$$$$
