CMV.pdb
     RDKit          3D

 22 21  0  0  1  0  0  0  0  0999 V2000
   24.7871  -12.1044  -18.2698 N   0  0  0  0  0  0  0  0  0  0  0  0
   24.4303  -11.5031  -17.0011 C   0  0  1  0  0  0  0  0  0  0  0  0
   25.6888  -11.1008  -16.3032 C   0  0  0  0  0  0  0  0  0  0  0  0
   26.4704  -12.6106  -15.6420 S   0  0  0  0  0  0  0  0  0  0  0  0
   23.4957  -10.3639  -17.1749 C   0  0  0  0  0  0  0  0  0  0  0  0
   23.7057   -9.5508  -18.0808 O   0  0  0  0  0  0  0  0  0  0  0  0
   17.1384  -11.0243  -15.3169 C   0  0  0  0  0  0  0  0  0  0  0  0
   17.3030   -9.7751  -16.6117 S   0  0  0  0  0  0  0  0  0  0  0  0
   18.8714   -8.8401  -16.3753 C   0  0  0  0  0  0  0  0  0  0  0  0
   20.0047   -9.7969  -16.2633 C   0  0  0  0  0  0  0  0  0  0  0  0
   21.3686   -9.2489  -16.3624 C   0  0  2  0  0  0  0  0  0  0  0  0
   22.3923  -10.2275  -16.3119 N   0  0  0  0  0  0  0  0  0  0  0  0
   21.5572   -8.0468  -15.5308 C   0  0  0  0  0  0  0  0  0  0  0  0
   21.8358   -8.2336  -14.3145 O   0  0  0  0  0  0  0  0  0  0  0  0
   22.6425   -4.3252  -16.9332 C   0  0  0  0  0  0  0  0  0  0  0  0
   22.8882   -4.7781  -15.5136 C   0  0  2  0  0  0  0  0  0  0  0  0
   24.0849   -5.7064  -15.5260 C   0  0  0  0  0  0  0  0  0  0  0  0
   21.6909   -5.5785  -15.0516 C   0  0  2  0  0  0  0  0  0  0  0  0
   21.4503   -6.7091  -15.9652 N   0  0  0  0  0  0  0  0  0  0  0  0
   20.4613   -4.7596  -15.0465 C   0  0  0  0  0  0  0  0  0  0  0  0
   19.5718   -4.9546  -15.9088 O   0  0  0  0  0  0  0  0  0  0  0  0
   20.3029   -3.7678  -14.0692 O   0  0  0  0  0  0  0  0  0  0  0  0
  2  1  1  6
  2  3  1  0
  4  3  1  0
  5 12  1  0
  5  2  1  0
  6  5  2  0
  8  7  1  0
  9  8  1  0
  9 10  1  0
 11 10  1  1
 11 13  1  0
 11 12  1  0
 13 19  1  0
 14 13  2  0
 16 15  1  6
 16 17  1  0
 18 20  1  0
 18 16  1  0
 18 19  1  6
 20 22  1  0
 21 20  2  0
M  END
$$$$
