CMV.pdb
     RDKit          3D

 22 21  0  0  1  0  0  0  0  0999 V2000
   28.5542  -20.0657  -16.1896 N   0  0  0  0  0  0  0  0  0  0  0  0
   28.2927  -19.5917  -14.8460 C   0  0  1  0  0  0  0  0  0  0  0  0
   28.0294  -18.1222  -14.9108 C   0  0  0  0  0  0  0  0  0  0  0  0
   26.5640  -17.8612  -15.9653 S   0  0  0  0  0  0  0  0  0  0  0  0
   27.1782  -20.3342  -14.2070 C   0  0  0  0  0  0  0  0  0  0  0  0
   26.4587  -21.0529  -14.9082 O   0  0  0  0  0  0  0  0  0  0  0  0
   27.0562  -20.3727   -7.7971 C   0  0  0  0  0  0  0  0  0  0  0  0
   25.2842  -20.6669   -7.9910 S   0  0  0  0  0  0  0  0  0  0  0  0
   24.9077  -21.0451   -9.7532 C   0  0  0  0  0  0  0  0  0  0  0  0
   25.9884  -20.4995  -10.6173 C   0  0  0  0  0  0  0  0  0  0  0  0
   25.8620  -20.7002  -12.0712 C   0  0  2  0  0  0  0  0  0  0  0  0
   26.9592  -20.2099  -12.8223 N   0  0  0  0  0  0  0  0  0  0  0  0
   24.5151  -20.3737  -12.5725 C   0  0  0  0  0  0  0  0  0  0  0  0
   24.2964  -19.1683  -12.8744 O   0  0  0  0  0  0  0  0  0  0  0  0
   20.7590  -21.3266  -15.3747 C   0  0  0  0  0  0  0  0  0  0  0  0
   22.0858  -21.6691  -14.7398 C   0  0  2  0  0  0  0  0  0  0  0  0
   22.0650  -23.1437  -14.3943 C   0  0  0  0  0  0  0  0  0  0  0  0
   22.2120  -20.8959  -13.4461 C   0  0  2  0  0  0  0  0  0  0  0  0
   23.4475  -21.2799  -12.7413 N   0  0  0  0  0  0  0  0  0  0  0  0
   21.0876  -21.1827  -12.5319 C   0  0  0  0  0  0  0  0  0  0  0  0
   21.2843  -21.8310  -11.4765 O   0  0  0  0  0  0  0  0  0  0  0  0
   19.8049  -20.7219  -12.8580 O   0  0  0  0  0  0  0  0  0  0  0  0
  2  1  1  6
  2  3  1  0
  4  3  1  0
  5 12  1  0
  5  2  1  0
  6  5  2  0
  8  7  1  0
  9  8  1  0
  9 10  1  0
 11 10  1  1
 11 13  1  0
 11 12  1  0
 13 19  1  0
 14 13  2  0
 16 15  1  1
 16 17  1  0
 18 20  1  0
 18 16  1  0
 18 19  1  1
 20 22  1  0
 21 20  2  0
M  END
$$$$
