CMV.pdb
     RDKit          3D

 22 21  0  0  1  0  0  0  0  0999 V2000
   14.3465  -22.6956   -7.9966 N   0  0  0  0  0  0  0  0  0  0  0  0
   13.6446  -23.1729   -6.8228 C   0  0  1  0  0  0  0  0  0  0  0  0
   12.7587  -24.3037   -7.2344 C   0  0  0  0  0  0  0  0  0  0  0  0
   11.2574  -23.5937   -7.9889 S   0  0  0  0  0  0  0  0  0  0  0  0
   14.5821  -23.5595   -5.7396 C   0  0  0  0  0  0  0  0  0  0  0  0
   15.7180  -23.9409   -6.0396 O   0  0  0  0  0  0  0  0  0  0  0  0
   15.6930  -22.0799    1.9639 C   0  0  0  0  0  0  0  0  0  0  0  0
   14.6845  -21.9434    0.4710 S   0  0  0  0  0  0  0  0  0  0  0  0
   15.3055  -23.1155   -0.8059 C   0  0  0  0  0  0  0  0  0  0  0  0
   14.5329  -22.9307   -2.0633 C   0  0  0  0  0  0  0  0  0  0  0  0
   14.9435  -23.7230   -3.2355 C   0  0  2  0  0  0  0  0  0  0  0  0
   14.1666  -23.4865   -4.3969 N   0  0  0  0  0  0  0  0  0  0  0  0
   15.2218  -25.1304   -2.8979 C   0  0  0  0  0  0  0  0  0  0  0  0
   14.2554  -25.9375   -2.9790 O   0  0  0  0  0  0  0  0  0  0  0  0
   18.2413  -28.9729   -2.5214 C   0  0  0  0  0  0  0  0  0  0  0  0
   17.9987  -27.5263   -2.8810 C   0  0  2  0  0  0  0  0  0  0  0  0
   19.0734  -26.6973   -2.2087 C   0  0  0  0  0  0  0  0  0  0  0  0
   16.6657  -27.1057   -2.3033 C   0  0  2  0  0  0  0  0  0  0  0  0
   16.4641  -25.6579   -2.4881 N   0  0  0  0  0  0  0  0  0  0  0  0
   16.5975  -27.3684   -0.8512 C   0  0  0  0  0  0  0  0  0  0  0  0
   16.6822  -26.4195   -0.0355 O   0  0  0  0  0  0  0  0  0  0  0  0
   16.4369  -28.6854   -0.4001 O   0  0  0  0  0  0  0  0  0  0  0  0
  2  1  1  6
  2  3  1  0
  4  3  1  0
  5 12  1  0
  5  2  1  0
  6  5  2  0
  8  7  1  0
  9  8  1  0
  9 10  1  0
 11 10  1  1
 11 13  1  0
 11 12  1  0
 13 19  1  0
 14 13  2  0
 16 15  1  1
 16 17  1  0
 18 20  1  0
 18 16  1  0
 18 19  1  1
 20 22  1  0
 21 20  2  0
M  END
$$$$
