RGH.pdb
     RDKit          3D

 26 26  0  0  1  0  0  0  0  0999 V2000
    8.3031  -13.3753   20.2623 N   0  0  0  0  0  0  0  0  0  0  0  0
    7.8013  -13.3938   18.9425 C   0  0  0  0  0  0  0  0  0  0  0  0
    6.5633  -13.0694   18.7442 N   0  0  0  0  0  0  0  0  0  0  0  0
    8.5933  -13.7545   17.8038 N   0  0  0  0  0  0  0  0  0  0  0  0
    9.2640  -15.0208   17.7025 C   0  0  0  0  0  0  0  0  0  0  0  0
    9.2722  -15.8201   18.9526 C   0  0  0  0  0  0  0  0  0  0  0  0
   10.0014  -17.1134   18.8486 C   0  0  0  0  0  0  0  0  0  0  0  0
    9.3763  -18.1876   19.7161 C   0  0  2  0  0  0  0  0  0  0  0  0
    8.1517  -17.8160   20.3300 N   0  0  0  0  0  0  0  0  0  0  0  0
   10.3624  -18.6198   20.7123 C   0  0  0  0  0  0  0  0  0  0  0  0
   11.4504  -19.0951   20.3218 O   0  0  0  0  0  0  0  0  0  0  0  0
    6.1321  -13.0562   17.8124 N   0  0  0  0  0  0  0  0  0  0  0  0
   10.0695  -18.4940   22.0919 C   0  0  0  0  0  0  0  0  0  0  0  0
   11.0551  -18.4836   23.1277 C   0  0  0  0  0  0  0  0  0  0  0  0
   10.8186  -19.5531   24.1026 O   0  0  0  0  0  0  0  0  0  0  0  0
   10.2648  -20.6223   23.6871 N   0  0  0  0  0  0  0  0  0  0  0  0
   11.1789  -19.4371   25.4437 C   0  0  1  0  0  0  0  0  0  0  0  0
   11.5560  -20.6248   26.2132 C   0  0  0  0  0  0  0  0  0  0  0  0
   12.7122  -21.3129   25.5703 C   0  0  0  0  0  0  0  0  0  0  0  0
   12.2393  -22.3359   24.6213 C   0  0  0  0  0  0  0  0  0  0  0  0
   10.9646  -22.7379   24.2981 N   0  0  0  0  0  0  0  0  0  0  0  0
   10.9893  -23.7339   23.3845 C   0  0  0  0  0  0  0  0  0  0  0  0
   12.2810  -23.9664   23.1258 N   0  0  0  0  0  0  0  0  0  0  0  0
   13.0421  -23.1365   23.8594 C   0  0  0  0  0  0  0  0  0  0  0  0
   11.8249  -20.2029   27.5956 O   0  0  0  0  0  0  0  0  0  0  0  0
   11.4466  -21.0009   28.6512 O   0  0  0  0  0  0  0  0  0  0  0  0
  2  1  1  0
  3  2  2  0
  4  2  1  0
  5  4  1  0
  6  5  1  0
  6  7  1  0
  7  8  1  0
  8  9  1  1
 10  8  1  0
 11 10  2  0
 12 10  1  0
 13 12  1  0
 14 13  1  0
 14 16  1  0
 15 14  2  0
 17 16  1  0
 17 24  1  0
 17 18  1  1
 19 18  1  0
 19 20  2  0
 21 20  1  0
 22 21  1  0
 23 22  2  0
 23 19  1  0
 24 26  2  0
 24 25  1  0
M  END
$$$$
