RGH.pdb
     RDKit          3D

 26 26  0  0  1  0  0  0  0  0999 V2000
   13.3826  -19.2134   15.3733 N   0  0  0  0  0  0  0  0  0  0  0  0
   14.3162  -19.8116   16.2478 C   0  0  0  0  0  0  0  0  0  0  0  0
   15.5299  -19.9899   15.8330 N   0  0  0  0  0  0  0  0  0  0  0  0
   13.9905  -20.2347   17.5779 N   0  0  0  0  0  0  0  0  0  0  0  0
   12.6949  -20.0177   18.1592 C   0  0  0  0  0  0  0  0  0  0  0  0
   12.2734  -18.5963   18.2221 C   0  0  0  0  0  0  0  0  0  0  0  0
   10.9502  -18.3773   18.8672 C   0  0  0  0  0  0  0  0  0  0  0  0
   11.0314  -18.4841   20.3770 C   0  0  2  0  0  0  0  0  0  0  0  0
   10.6497  -19.7455   20.9037 N   0  0  0  0  0  0  0  0  0  0  0  0
   10.2414  -17.3985   20.9679 C   0  0  0  0  0  0  0  0  0  0  0  0
   10.5533  -16.2148   20.7153 O   0  0  0  0  0  0  0  0  0  0  0  0
   16.2571  -20.4319   16.4077 N   0  0  0  0  0  0  0  0  0  0  0  0
    9.1454  -17.7048   21.8104 C   0  0  0  0  0  0  0  0  0  0  0  0
    8.3030  -16.7266   22.4251 C   0  0  0  0  0  0  0  0  0  0  0  0
    8.7733  -16.3851   23.7715 O   0  0  0  0  0  0  0  0  0  0  0  0
   10.0244  -16.2108   23.9360 N   0  0  0  0  0  0  0  0  0  0  0  0
    7.9073  -16.2447   24.8541 C   0  0  1  0  0  0  0  0  0  0  0  0
    8.4366  -15.9941   26.1964 C   0  0  0  0  0  0  0  0  0  0  0  0
    7.3952  -15.3578   27.0533 C   0  0  0  0  0  0  0  0  0  0  0  0
    7.1356  -13.9775   26.6085 C   0  0  0  0  0  0  0  0  0  0  0  0
    7.7797  -13.2006   25.6744 N   0  0  0  0  0  0  0  0  0  0  0  0
    7.2188  -11.9731   25.5975 C   0  0  0  0  0  0  0  0  0  0  0  0
    6.2166  -11.9684   26.4835 N   0  0  0  0  0  0  0  0  0  0  0  0
    6.1544  -13.1624   27.0971 C   0  0  0  0  0  0  0  0  0  0  0  0
    8.9332  -17.2693   26.7336 O   0  0  0  0  0  0  0  0  0  0  0  0
    9.6113  -17.3016   27.9308 O   0  0  0  0  0  0  0  0  0  0  0  0
  2  1  1  0
  3  2  2  0
  4  2  1  0
  5  4  1  0
  6  5  1  0
  6  7  1  0
  7  8  1  0
  8  9  1  1
 10  8  1  0
 11 10  2  0
 12 10  1  0
 13 12  1  0
 14 13  1  0
 14 16  1  0
 15 14  2  0
 17 16  1  0
 17 24  1  0
 17 18  1  1
 19 18  1  0
 19 20  2  0
 21 20  1  0
 22 21  1  0
 23 22  2  0
 23 19  1  0
 24 26  2  0
 24 25  1  0
M  END
$$$$
