RGH.pdb
     RDKit          3D

 26 26  0  0  1  0  0  0  0  0999 V2000
    9.3594  -15.5293   14.1635 N   0  0  0  0  0  0  0  0  0  0  0  0
    7.9672  -15.6692   14.3551 C   0  0  0  0  0  0  0  0  0  0  0  0
    7.2188  -15.9017   13.3241 N   0  0  0  0  0  0  0  0  0  0  0  0
    7.3345  -15.5669   15.6370 N   0  0  0  0  0  0  0  0  0  0  0  0
    8.0808  -15.5423   16.8641 C   0  0  0  0  0  0  0  0  0  0  0  0
    8.2995  -14.1882   17.4301 C   0  0  0  0  0  0  0  0  0  0  0  0
    9.3486  -14.1264   18.4839 C   0  0  0  0  0  0  0  0  0  0  0  0
    8.9897  -14.9701   19.6909 C   0  0  2  0  0  0  0  0  0  0  0  0
    7.8523  -15.8011   19.5165 N   0  0  0  0  0  0  0  0  0  0  0  0
    8.8316  -14.0868   20.8513 C   0  0  0  0  0  0  0  0  0  0  0  0
    9.7853  -13.3528   21.1888 O   0  0  0  0  0  0  0  0  0  0  0  0
    6.1937  -15.9331   13.3742 N   0  0  0  0  0  0  0  0  0  0  0  0
    7.6102  -14.0790   21.5676 C   0  0  0  0  0  0  0  0  0  0  0  0
    7.3047  -13.1725   22.6303 C   0  0  0  0  0  0  0  0  0  0  0  0
    8.0359  -13.5161   23.8540 O   0  0  0  0  0  0  0  0  0  0  0  0
    8.1424  -12.6195   24.7526 N   0  0  0  0  0  0  0  0  0  0  0  0
    8.6032  -14.7721   24.0599 C   0  0  1  0  0  0  0  0  0  0  0  0
    9.2904  -15.0759   25.3170 C   0  0  0  0  0  0  0  0  0  0  0  0
    8.2986  -15.3430   26.3980 C   0  0  0  0  0  0  0  0  0  0  0  0
    7.6448  -14.0911   26.8175 C   0  0  0  0  0  0  0  0  0  0  0  0
    8.1661  -12.8377   27.0377 N   0  0  0  0  0  0  0  0  0  0  0  0
    7.2031  -11.9777   27.4378 C   0  0  0  0  0  0  0  0  0  0  0  0
    6.0675  -12.6840   27.4725 N   0  0  0  0  0  0  0  0  0  0  0  0
    6.3164  -13.9521   27.1035 C   0  0  0  0  0  0  0  0  0  0  0  0
   10.2040  -16.2017   25.0739 O   0  0  0  0  0  0  0  0  0  0  0  0
   10.2824  -16.7752   23.8252 O   0  0  0  0  0  0  0  0  0  0  0  0
  2  1  1  0
  3  2  2  0
  4  2  1  0
  5  4  1  0
  6  5  1  0
  6  7  1  0
  7  8  1  0
  8  9  1  6
 10  8  1  0
 11 10  2  0
 12 10  1  0
 13 12  1  0
 14 13  1  0
 14 16  1  0
 15 14  2  0
 17 16  1  0
 17 24  1  0
 17 18  1  1
 19 18  1  0
 19 20  2  0
 21 20  1  0
 22 21  1  0
 23 22  2  0
 23 19  1  0
 24 26  2  0
 24 25  1  0
M  END
$$$$
