RGH.pdb
     RDKit          3D

 26 26  0  0  1  0  0  0  0  0999 V2000
    9.0352  -11.9555   19.2158 N   0  0  0  0  0  0  0  0  0  0  0  0
    8.1250  -13.0162   19.0145 C   0  0  0  0  0  0  0  0  0  0  0  0
    6.9826  -12.9782   19.6232 N   0  0  0  0  0  0  0  0  0  0  0  0
    8.3994  -14.1394   18.1675 N   0  0  0  0  0  0  0  0  0  0  0  0
    8.7357  -15.4342   18.6909 C   0  0  0  0  0  0  0  0  0  0  0  0
    9.4059  -15.4133   20.0146 C   0  0  0  0  0  0  0  0  0  0  0  0
    9.6779  -16.7606   20.5853 C   0  0  0  0  0  0  0  0  0  0  0  0
    8.7403  -17.0910   21.7296 C   0  0  2  0  0  0  0  0  0  0  0  0
    7.5312  -16.3478   21.7389 N   0  0  0  0  0  0  0  0  0  0  0  0
    9.4695  -16.9387   22.9932 C   0  0  0  0  0  0  0  0  0  0  0  0
   10.5857  -17.4868   23.1190 O   0  0  0  0  0  0  0  0  0  0  0  0
    6.2790  -13.7211   19.5368 N   0  0  0  0  0  0  0  0  0  0  0  0
    8.9022  -16.1791   24.0450 C   0  0  0  0  0  0  0  0  0  0  0  0
    9.5430  -15.9349   25.2996 C   0  0  0  0  0  0  0  0  0  0  0  0
    9.1219  -16.9066   26.3140 O   0  0  0  0  0  0  0  0  0  0  0  0
    7.9450  -16.7959   26.7885 N   0  0  0  0  0  0  0  0  0  0  0  0
    9.9547  -17.9300   26.7621 C   0  0  1  0  0  0  0  0  0  0  0  0
    9.5414  -18.7844   27.8775 C   0  0  0  0  0  0  0  0  0  0  0  0
    9.2433  -20.1624   27.3915 C   0  0  0  0  0  0  0  0  0  0  0  0
    8.1183  -20.1404   26.4404 C   0  0  0  0  0  0  0  0  0  0  0  0
    7.3412  -19.0969   25.9949 N   0  0  0  0  0  0  0  0  0  0  0  0
    6.3954  -19.5327   25.1331 C   0  0  0  0  0  0  0  0  0  0  0  0
    6.5701  -20.8550   25.0299 N   0  0  0  0  0  0  0  0  0  0  0  0
    7.5987  -21.2338   25.8076 C   0  0  0  0  0  0  0  0  0  0  0  0
   10.5998  -18.7429   28.8969 O   0  0  0  0  0  0  0  0  0  0  0  0
   11.7539  -18.0279   28.6711 O   0  0  0  0  0  0  0  0  0  0  0  0
  2  1  1  0
  3  2  2  0
  4  2  1  0
  5  4  1  0
  6  5  1  0
  6  7  1  0
  7  8  1  0
  8  9  1  1
 10  8  1  0
 11 10  2  0
 12 10  1  0
 13 12  1  0
 14 13  1  0
 14 16  1  0
 15 14  2  0
 17 16  1  0
 17 24  1  0
 17 18  1  1
 19 18  1  0
 19 20  2  0
 21 20  1  0
 22 21  1  0
 23 22  2  0
 23 19  1  0
 24 26  2  0
 24 25  1  0
M  END
$$$$
