RGH.pdb
     RDKit          3D

 26 26  0  0  1  0  0  0  0  0999 V2000
    9.2809  -16.3097   15.7960 N   0  0  0  0  0  0  0  0  0  0  0  0
    8.5571  -15.3762   15.0222 C   0  0  0  0  0  0  0  0  0  0  0  0
    8.2012  -15.7076   13.8220 N   0  0  0  0  0  0  0  0  0  0  0  0
    8.1931  -14.0737   15.4968 N   0  0  0  0  0  0  0  0  0  0  0  0
    8.6188  -13.5731   16.7742 C   0  0  0  0  0  0  0  0  0  0  0  0
    7.8728  -14.1198   17.9346 C   0  0  0  0  0  0  0  0  0  0  0  0
    7.9267  -13.2684   19.1541 C   0  0  0  0  0  0  0  0  0  0  0  0
    9.2662  -13.3685   19.8563 C   0  0  2  0  0  0  0  0  0  0  0  0
   10.3637  -13.6525   19.0023 N   0  0  0  0  0  0  0  0  0  0  0  0
    9.1590  -14.3583   20.9337 C   0  0  0  0  0  0  0  0  0  0  0  0
    8.2451  -14.2389   21.7779 O   0  0  0  0  0  0  0  0  0  0  0  0
    7.6556  -15.0887   13.2106 N   0  0  0  0  0  0  0  0  0  0  0  0
   10.0860  -15.4265   21.0017 C   0  0  0  0  0  0  0  0  0  0  0  0
   10.0750  -16.4404   22.0098 C   0  0  0  0  0  0  0  0  0  0  0  0
   10.4498  -15.8976   23.3194 O   0  0  0  0  0  0  0  0  0  0  0  0
   11.2324  -14.8928   23.3427 N   0  0  0  0  0  0  0  0  0  0  0  0
    9.9805  -16.4364   24.5157 C   0  0  1  0  0  0  0  0  0  0  0  0
    9.4283  -15.5630   25.5535 C   0  0  0  0  0  0  0  0  0  0  0  0
    8.2666  -14.7951   25.0200 C   0  0  0  0  0  0  0  0  0  0  0  0
    7.7223  -13.8997   26.0557 C   0  0  0  0  0  0  0  0  0  0  0  0
    8.3258  -13.3200   27.1470 N   0  0  0  0  0  0  0  0  0  0  0  0
    7.4408  -12.5809   27.8523 C   0  0  0  0  0  0  0  0  0  0  0  0
    6.2726  -12.6901   27.2097 N   0  0  0  0  0  0  0  0  0  0  0  0
    6.4255  -13.4773   26.1313 C   0  0  0  0  0  0  0  0  0  0  0  0
    9.0904  -16.3974   26.7158 O   0  0  0  0  0  0  0  0  0  0  0  0
    9.1129  -17.7698   26.6155 O   0  0  0  0  0  0  0  0  0  0  0  0
  2  1  1  0
  3  2  2  0
  4  2  1  0
  5  4  1  0
  6  5  1  0
  6  7  1  0
  7  8  1  0
  8  9  1  6
 10  8  1  0
 11 10  2  0
 12 10  1  0
 13 12  1  0
 14 13  1  0
 14 16  1  0
 15 14  2  0
 17 16  1  0
 17 24  1  0
 17 18  1  1
 19 18  1  0
 19 20  2  0
 21 20  1  0
 22 21  1  0
 23 22  2  0
 23 19  1  0
 24 26  2  0
 24 25  1  0
M  END
$$$$
