RGH.pdb
     RDKit          3D

 26 26  0  0  1  0  0  0  0  0999 V2000
   10.4650  -13.2401   19.5104 N   0  0  0  0  0  0  0  0  0  0  0  0
    9.1639  -13.1793   18.9648 C   0  0  0  0  0  0  0  0  0  0  0  0
    9.0325  -12.9628   17.6947 N   0  0  0  0  0  0  0  0  0  0  0  0
    7.9738  -13.3453   19.7459 N   0  0  0  0  0  0  0  0  0  0  0  0
    7.6092  -14.6034   20.3357 C   0  0  0  0  0  0  0  0  0  0  0  0
    7.1382  -15.6275   19.3707 C   0  0  0  0  0  0  0  0  0  0  0  0
    7.2191  -17.0261   19.8729 C   0  0  0  0  0  0  0  0  0  0  0  0
    8.4668  -17.2594   20.7013 C   0  0  2  0  0  0  0  0  0  0  0  0
    9.3710  -18.2085   20.1573 N   0  0  0  0  0  0  0  0  0  0  0  0
    8.0645  -17.6262   22.0634 C   0  0  0  0  0  0  0  0  0  0  0  0
    7.3363  -18.6280   22.2315 O   0  0  0  0  0  0  0  0  0  0  0  0
    8.1196  -12.8411   17.2407 N   0  0  0  0  0  0  0  0  0  0  0  0
    8.5030  -16.8453   23.1603 C   0  0  0  0  0  0  0  0  0  0  0  0
    7.6349  -16.2817   24.1467 C   0  0  0  0  0  0  0  0  0  0  0  0
    8.3794  -15.4676   25.1128 O   0  0  0  0  0  0  0  0  0  0  0  0
    8.3425  -14.2019   24.9746 N   0  0  0  0  0  0  0  0  0  0  0  0
    9.1087  -16.0278   26.1597 C   0  0  1  0  0  0  0  0  0  0  0  0
    9.3986  -15.2430   27.3617 C   0  0  0  0  0  0  0  0  0  0  0  0
    8.1305  -14.8274   28.0272 C   0  0  0  0  0  0  0  0  0  0  0  0
    7.5343  -13.6771   27.3258 C   0  0  0  0  0  0  0  0  0  0  0  0
    8.0081  -12.9216   26.2790 N   0  0  0  0  0  0  0  0  0  0  0  0
    7.1373  -11.9381   25.9602 C   0  0  0  0  0  0  0  0  0  0  0  0
    6.1081  -12.0674   26.8049 N   0  0  0  0  0  0  0  0  0  0  0  0
    6.3316  -13.1050   27.6292 C   0  0  0  0  0  0  0  0  0  0  0  0
   10.2744  -16.0461   28.2274 O   0  0  0  0  0  0  0  0  0  0  0  0
   10.5854  -17.3433   27.8887 O   0  0  0  0  0  0  0  0  0  0  0  0
  2  1  1  0
  3  2  2  0
  4  2  1  0
  5  4  1  0
  6  5  1  0
  6  7  1  0
  7  8  1  0
  8  9  1  6
 10  8  1  0
 11 10  2  0
 12 10  1  0
 13 12  1  0
 14 13  1  0
 14 16  1  0
 15 14  2  0
 17 16  1  0
 17 24  1  0
 17 18  1  1
 19 18  1  0
 19 20  2  0
 21 20  1  0
 22 21  1  0
 23 22  2  0
 23 19  1  0
 24 26  2  0
 24 25  1  0
M  END
$$$$
