RGH.pdb
     RDKit          3D

 26 26  0  0  1  0  0  0  0  0999 V2000
    9.4461  -14.6249   15.6664 N   0  0  0  0  0  0  0  0  0  0  0  0
    8.2407  -14.0295   15.2342 C   0  0  0  0  0  0  0  0  0  0  0  0
    7.9445  -14.0707   13.9742 N   0  0  0  0  0  0  0  0  0  0  0  0
    7.3221  -13.3779   16.1206 N   0  0  0  0  0  0  0  0  0  0  0  0
    7.5550  -13.2800   17.5347 C   0  0  0  0  0  0  0  0  0  0  0  0
    8.3285  -14.4054   18.1154 C   0  0  0  0  0  0  0  0  0  0  0  0
    8.5925  -14.2793   19.5746 C   0  0  0  0  0  0  0  0  0  0  0  0
    8.7230  -15.6321   20.2457 C   0  0  2  0  0  0  0  0  0  0  0  0
    7.5335  -16.1083   20.8562 N   0  0  0  0  0  0  0  0  0  0  0  0
    9.8295  -15.5748   21.2070 C   0  0  0  0  0  0  0  0  0  0  0  0
   10.9882  -15.3693   20.7860 O   0  0  0  0  0  0  0  0  0  0  0  0
    7.0894  -13.6537   13.5878 N   0  0  0  0  0  0  0  0  0  0  0  0
    9.5711  -15.7526   22.5878 C   0  0  0  0  0  0  0  0  0  0  0  0
   10.5158  -15.4815   23.6262 C   0  0  0  0  0  0  0  0  0  0  0  0
    9.9406  -15.7307   24.9519 O   0  0  0  0  0  0  0  0  0  0  0  0
   10.6574  -15.4605   25.9695 N   0  0  0  0  0  0  0  0  0  0  0  0
    8.6558  -16.2409   25.1269 C   0  0  1  0  0  0  0  0  0  0  0  0
    8.1457  -16.5138   26.4724 C   0  0  0  0  0  0  0  0  0  0  0  0
    6.8214  -15.8566   26.6674 C   0  0  0  0  0  0  0  0  0  0  0  0
    6.9653  -14.3906   26.6390 C   0  0  0  0  0  0  0  0  0  0  0  0
    8.0907  -13.6005   26.6213 N   0  0  0  0  0  0  0  0  0  0  0  0
    7.7606  -12.2897   26.6206 C   0  0  0  0  0  0  0  0  0  0  0  0
    6.4237  -12.2451   26.6381 N   0  0  0  0  0  0  0  0  0  0  0  0
    5.9330  -13.4961   26.6494 C   0  0  0  0  0  0  0  0  0  0  0  0
    8.1045  -17.9720   26.6546 O   0  0  0  0  0  0  0  0  0  0  0  0
    7.9262  -18.8024   25.5716 O   0  0  0  0  0  0  0  0  0  0  0  0
  2  1  1  0
  3  2  2  0
  4  2  1  0
  5  4  1  0
  6  5  1  0
  6  7  1  0
  7  8  1  0
  8  9  1  1
 10  8  1  0
 11 10  2  0
 12 10  1  0
 13 12  1  0
 14 13  1  0
 14 16  1  0
 15 14  2  0
 17 16  1  0
 17 24  1  0
 17 18  1  1
 19 18  1  0
 19 20  2  0
 21 20  1  0
 22 21  1  0
 23 22  2  0
 23 19  1  0
 24 26  2  0
 24 25  1  0
M  END
$$$$
