RGH.pdb
     RDKit          3D

 26 26  0  0  1  0  0  0  0  0999 V2000
    8.8419  -13.2438   15.6595 N   0  0  0  0  0  0  0  0  0  0  0  0
    8.5952  -14.5117   15.0886 C   0  0  0  0  0  0  0  0  0  0  0  0
    8.5165  -14.6077   13.7995 N   0  0  0  0  0  0  0  0  0  0  0  0
    8.4262  -15.7051   15.8640 N   0  0  0  0  0  0  0  0  0  0  0  0
    7.6989  -15.7218   17.1027 C   0  0  0  0  0  0  0  0  0  0  0  0
    8.4762  -15.2733   18.2844 C   0  0  0  0  0  0  0  0  0  0  0  0
    9.3653  -16.3161   18.8651 C   0  0  0  0  0  0  0  0  0  0  0  0
    8.9284  -16.7211   20.2588 C   0  0  2  0  0  0  0  0  0  0  0  0
    7.6123  -17.2466   20.3385 N   0  0  0  0  0  0  0  0  0  0  0  0
    9.0996  -15.5739   21.1567 C   0  0  0  0  0  0  0  0  0  0  0  0
   10.2439  -15.0992   21.3224 O   0  0  0  0  0  0  0  0  0  0  0  0
    8.2704  -15.4810   13.3188 N   0  0  0  0  0  0  0  0  0  0  0  0
    7.9745  -15.0253   21.8187 C   0  0  0  0  0  0  0  0  0  0  0  0
    7.9825  -13.7835   22.5274 C   0  0  0  0  0  0  0  0  0  0  0  0
    8.4255  -13.9611   23.9140 O   0  0  0  0  0  0  0  0  0  0  0  0
    8.7886  -12.9238   24.5579 N   0  0  0  0  0  0  0  0  0  0  0  0
    8.4563  -15.2074   24.5365 C   0  0  1  0  0  0  0  0  0  0  0  0
    8.8065  -15.3170   25.9544 C   0  0  0  0  0  0  0  0  0  0  0  0
    7.5751  -15.2966   26.7951 C   0  0  0  0  0  0  0  0  0  0  0  0
    7.0512  -13.9241   26.9071 C   0  0  0  0  0  0  0  0  0  0  0  0
    7.5921  -12.7231   26.5121 N   0  0  0  0  0  0  0  0  0  0  0  0
    6.7737  -11.6961   26.8326 C   0  0  0  0  0  0  0  0  0  0  0  0
    5.7107  -12.2437   27.4324 N   0  0  0  0  0  0  0  0  0  0  0  0
    5.8626  -13.5780   27.4845 C   0  0  0  0  0  0  0  0  0  0  0  0
    9.6112  -16.5348   26.1299 O   0  0  0  0  0  0  0  0  0  0  0  0
    9.6739  -17.4761   25.1278 O   0  0  0  0  0  0  0  0  0  0  0  0
  2  1  1  0
  3  2  2  0
  4  2  1  0
  5  4  1  0
  6  5  1  0
  6  7  1  0
  7  8  1  0
  8  9  1  6
 10  8  1  0
 11 10  2  0
 12 10  1  0
 13 12  1  0
 14 13  1  0
 14 16  1  0
 15 14  2  0
 17 16  1  0
 17 24  1  0
 17 18  1  1
 19 18  1  0
 19 20  2  0
 21 20  1  0
 22 21  1  0
 23 22  2  0
 23 19  1  0
 24 26  2  0
 24 25  1  0
M  END
$$$$
