RTA.pdb
     RDKit          3D

 24 23  0  0  1  0  0  0  0  0999 V2000
   32.8452  -23.1047  -11.0545 N   0  0  0  0  0  0  0  0  0  0  0  0
   33.5618  -22.4046  -12.0564 C   0  0  0  0  0  0  0  0  0  0  0  0
   34.8256  -22.5140  -12.1392 N   0  0  0  0  0  0  0  0  0  0  0  0
   32.8544  -21.5804  -12.9674 N   0  0  0  0  0  0  0  0  0  0  0  0
   31.4615  -21.7681  -13.2744 C   0  0  0  0  0  0  0  0  0  0  0  0
   30.5594  -21.7995  -12.0741 C   0  0  0  0  0  0  0  0  0  0  0  0
   29.1777  -21.2628  -12.3739 C   0  0  0  0  0  0  0  0  0  0  0  0
   28.3413  -21.3543  -11.1188 C   0  0  2  0  0  0  0  0  0  0  0  0
   28.8924  -22.4007  -10.2907 N   0  0  0  0  0  0  0  0  0  0  0  0
   26.9176  -21.6429  -11.4187 C   0  0  0  0  0  0  0  0  0  0  0  0
   26.5911  -22.8206  -11.7098 O   0  0  0  0  0  0  0  0  0  0  0  0
   35.4264  -21.9622  -12.7768 C   0  0  0  0  0  0  0  0  0  0  0  0
   23.7619  -19.5085   -9.7918 C   0  0  2  0  0  0  0  0  0  0  0  0
   23.6846  -20.8983  -10.3828 O   0  0  0  0  0  0  0  0  0  0  0  0
   22.3598  -21.2018  -10.6523 C   0  0  1  0  0  0  0  0  0  0  0  0
   24.4954  -21.0331  -11.6380 N   0  0  0  0  0  0  0  0  0  0  0  0
   25.8993  -20.6773  -11.3986 C   0  0  0  0  0  0  0  0  0  0  0  0
   23.9918  -20.2094  -12.7693 O   0  0  0  0  0  0  0  0  0  0  0  0
   24.5453  -19.0863  -13.0502 C   0  0  0  0  0  0  0  0  0  0  0  0
   23.1149  -19.8686  -15.9064 C   0  0  2  0  0  0  0  0  0  0  0  0
   22.3737  -19.6408  -14.6068 N   0  0  0  0  0  0  0  0  0  0  0  0
   22.9153  -20.5608  -13.6018 C   0  0  0  0  0  0  0  0  0  0  0  0
   20.9327  -19.7979  -14.7782 O   0  0  0  0  0  0  0  0  0  0  0  0
   20.1958  -18.9747  -15.6081 O   0  0  0  0  0  0  0  0  0  0  0  0
  2  1  1  0
  2  3  2  0
  4  5  1  0
  4  2  1  0
  6  5  1  0
  7  8  1  0
  7  6  1  0
  8  9  1  1
  8 10  1  0
 10 11  2  0
 10 16  1  0
 13 12  1  1
 13 14  1  0
 15 17  1  0
 15 13  1  0
 15 16  1  1
 17 18  2  0
 20 19  1  1
 21 20  1  0
 21 17  1  0
 22 20  1  0
 23 22  1  0
 24 22  2  0
M  END
$$$$
