RTA.pdb
     RDKit          3D

 24 23  0  0  1  0  0  0  0  0999 V2000
   21.3594  -21.4337   -6.3471 N   0  0  0  0  0  0  0  0  0  0  0  0
   21.0169  -22.1136   -7.5421 C   0  0  0  0  0  0  0  0  0  0  0  0
   19.7978  -22.2745   -7.8642 N   0  0  0  0  0  0  0  0  0  0  0  0
   22.0486  -22.6126   -8.3763 N   0  0  0  0  0  0  0  0  0  0  0  0
   23.2537  -21.8784   -8.6560 C   0  0  0  0  0  0  0  0  0  0  0  0
   23.0334  -20.5616   -9.3439 C   0  0  0  0  0  0  0  0  0  0  0  0
   24.3298  -19.8541   -9.6692 C   0  0  0  0  0  0  0  0  0  0  0  0
   25.1983  -20.7866  -10.4811 C   0  0  2  0  0  0  0  0  0  0  0  0
   26.0537  -21.5075   -9.5685 N   0  0  0  0  0  0  0  0  0  0  0  0
   26.0210  -20.0559  -11.4758 C   0  0  0  0  0  0  0  0  0  0  0  0
   26.9991  -19.3811  -11.0680 O   0  0  0  0  0  0  0  0  0  0  0  0
   19.4714  -22.7329   -8.7334 C   0  0  0  0  0  0  0  0  0  0  0  0
   28.2439  -21.1810  -14.0463 C   0  0  2  0  0  0  0  0  0  0  0  0
   27.3209  -20.2118  -14.7503 O   0  0  0  0  0  0  0  0  0  0  0  0
   26.3918  -20.9273  -15.4882 C   0  0  2  0  0  0  0  0  0  0  0  0
   26.6084  -19.3016  -13.7938 N   0  0  0  0  0  0  0  0  0  0  0  0
   25.7769  -20.0681  -12.8579 C   0  0  0  0  0  0  0  0  0  0  0  0
   25.7480  -18.2869  -14.4587 O   0  0  0  0  0  0  0  0  0  0  0  0
   24.5111  -18.5378  -14.6910 C   0  0  0  0  0  0  0  0  0  0  0  0
   26.0306  -14.7830  -15.7813 C   0  0  2  0  0  0  0  0  0  0  0  0
   25.3152  -16.1087  -15.6360 N   0  0  0  0  0  0  0  0  0  0  0  0
   26.1807  -17.0168  -14.8770 C   0  0  0  0  0  0  0  0  0  0  0  0
   24.9418  -16.6603  -16.9348 O   0  0  0  0  0  0  0  0  0  0  0  0
   23.7632  -16.3170  -17.5692 O   0  0  0  0  0  0  0  0  0  0  0  0
  2  1  1  0
  2  3  2  0
  4  5  1  0
  4  2  1  0
  6  5  1  0
  7  8  1  0
  7  6  1  0
  8  9  1  1
  8 10  1  0
 10 11  2  0
 10 16  1  0
 13 12  1  6
 13 14  1  0
 15 17  1  0
 15 13  1  0
 15 16  1  6
 17 18  2  0
 20 19  1  1
 21 20  1  0
 21 17  1  0
 22 20  1  0
 23 22  1  0
 24 22  2  0
M  END
$$$$
