RTA.pdb
     RDKit          3D

 24 23  0  0  1  0  0  0  0  0999 V2000
   31.4343  -25.7845  -16.2123 N   0  0  0  0  0  0  0  0  0  0  0  0
   30.8549  -26.0336  -17.4811 C   0  0  0  0  0  0  0  0  0  0  0  0
   31.4216  -26.8191  -18.3044 N   0  0  0  0  0  0  0  0  0  0  0  0
   29.6349  -25.3981  -17.8233 N   0  0  0  0  0  0  0  0  0  0  0  0
   28.9906  -24.4311  -16.9751 C   0  0  0  0  0  0  0  0  0  0  0  0
   29.7624  -23.1564  -16.7881 C   0  0  0  0  0  0  0  0  0  0  0  0
   29.0604  -22.1842  -15.8666 C   0  0  0  0  0  0  0  0  0  0  0  0
   27.9037  -21.5611  -16.6127 C   0  0  2  0  0  0  0  0  0  0  0  0
   28.4427  -20.7872  -17.7058 N   0  0  0  0  0  0  0  0  0  0  0  0
   27.0790  -20.6936  -15.7366 C   0  0  0  0  0  0  0  0  0  0  0  0
   27.4878  -19.5331  -15.4827 O   0  0  0  0  0  0  0  0  0  0  0  0
   31.0757  -27.0258  -19.2582 C   0  0  0  0  0  0  0  0  0  0  0  0
   24.3818  -18.7540  -16.2589 C   0  0  2  0  0  0  0  0  0  0  0  0
   23.9263  -19.5890  -15.0832 O   0  0  0  0  0  0  0  0  0  0  0  0
   23.1048  -20.6059  -15.5423 C   0  0  2  0  0  0  0  0  0  0  0  0
   25.0754  -20.1785  -14.3197 N   0  0  0  0  0  0  0  0  0  0  0  0
   25.8587  -21.0872  -15.1657 C   0  0  0  0  0  0  0  0  0  0  0  0
   24.6667  -20.9173  -13.0954 O   0  0  0  0  0  0  0  0  0  0  0  0
   24.0737  -22.0513  -13.1902 C   0  0  0  0  0  0  0  0  0  0  0  0
   24.7369  -20.4364   -9.3695 C   0  0  2  0  0  0  0  0  0  0  0  0
   24.2055  -21.0834  -10.6301 N   0  0  0  0  0  0  0  0  0  0  0  0
   24.8787  -20.4710  -11.7796 C   0  0  0  0  0  0  0  0  0  0  0  0
   22.7528  -20.9706  -10.7178 O   0  0  0  0  0  0  0  0  0  0  0  0
   22.1345  -19.9825  -11.4598 O   0  0  0  0  0  0  0  0  0  0  0  0
  2  1  1  0
  2  3  2  0
  4  5  1  0
  4  2  1  0
  6  5  1  0
  7  8  1  0
  7  6  1  0
  8  9  1  6
  8 10  1  0
 10 11  2  0
 10 16  1  0
 13 12  1  1
 13 14  1  0
 15 17  1  0
 15 13  1  0
 15 16  1  1
 17 18  2  0
 20 19  1  1
 21 20  1  0
 21 17  1  0
 22 20  1  0
 23 22  1  0
 24 22  2  0
M  END
$$$$
