RTA.pdb
     RDKit          3D

 24 23  0  0  1  0  0  0  0  0999 V2000
   29.9919  -18.2662  -18.2900 N   0  0  0  0  0  0  0  0  0  0  0  0
   29.4501  -16.9645  -18.4305 C   0  0  0  0  0  0  0  0  0  0  0  0
   29.8663  -16.1898  -19.3483 N   0  0  0  0  0  0  0  0  0  0  0  0
   28.4373  -16.5346  -17.5368 N   0  0  0  0  0  0  0  0  0  0  0  0
   27.7288  -17.4333  -16.6650 C   0  0  0  0  0  0  0  0  0  0  0  0
   26.9821  -18.5267  -17.3737 C   0  0  0  0  0  0  0  0  0  0  0  0
   26.1840  -19.3925  -16.4246 C   0  0  0  0  0  0  0  0  0  0  0  0
   27.1307  -20.0079  -15.4206 C   0  0  2  0  0  0  0  0  0  0  0  0
   27.9949  -20.9245  -16.1258 N   0  0  0  0  0  0  0  0  0  0  0  0
   26.4083  -20.7227  -14.3402 C   0  0  0  0  0  0  0  0  0  0  0  0
   26.1471  -21.9417  -14.4957 O   0  0  0  0  0  0  0  0  0  0  0  0
   29.5339  -15.2210  -19.5003 C   0  0  0  0  0  0  0  0  0  0  0  0
   24.7723  -21.1477   -9.6944 C   0  0  2  0  0  0  0  0  0  0  0  0
   25.6419  -20.5045  -10.7513 O   0  0  0  0  0  0  0  0  0  0  0  0
   26.9549  -20.9043  -10.5610 C   0  0  1  0  0  0  0  0  0  0  0  0
   25.2071  -20.8568  -12.1433 N   0  0  0  0  0  0  0  0  0  0  0  0
   25.9923  -20.1215  -13.1421 C   0  0  0  0  0  0  0  0  0  0  0  0
   23.7652  -20.6025  -12.4042 O   0  0  0  0  0  0  0  0  0  0  0  0
   23.3262  -19.4006  -12.5018 C   0  0  0  0  0  0  0  0  0  0  0  0
   20.7402  -22.4694  -13.4998 C   0  0  2  0  0  0  0  0  0  0  0  0
   21.3801  -21.2826  -12.8126 N   0  0  0  0  0  0  0  0  0  0  0  0
   22.7892  -21.6014  -12.5628 C   0  0  0  0  0  0  0  0  0  0  0  0
   20.6700  -20.9267  -11.5879 O   0  0  0  0  0  0  0  0  0  0  0  0
   19.4819  -20.2215  -11.6041 O   0  0  0  0  0  0  0  0  0  0  0  0
  2  1  1  0
  2  3  2  0
  4  5  1  0
  4  2  1  0
  6  5  1  0
  7  8  1  0
  7  6  1  0
  8  9  1  6
  8 10  1  0
 10 11  2  0
 10 16  1  0
 13 12  1  1
 13 14  1  0
 15 17  1  0
 15 13  1  0
 15 16  1  1
 17 18  2  0
 20 19  1  6
 21 20  1  0
 21 17  1  0
 22 20  1  0
 23 22  1  0
 24 22  2  0
M  END
$$$$
