RTA.pdb
     RDKit          3D

 24 23  0  0  1  0  0  0  0  0999 V2000
   27.8894  -10.7773  -21.4619 N   0  0  0  0  0  0  0  0  0  0  0  0
   27.4676  -12.1228  -21.3234 C   0  0  0  0  0  0  0  0  0  0  0  0
   26.5187  -12.5767  -22.0372 N   0  0  0  0  0  0  0  0  0  0  0  0
   28.1157  -12.9592  -20.3801 N   0  0  0  0  0  0  0  0  0  0  0  0
   29.3428  -12.5951  -19.7233 C   0  0  0  0  0  0  0  0  0  0  0  0
   29.8888  -13.6461  -18.7997 C   0  0  0  0  0  0  0  0  0  0  0  0
   31.1550  -13.2026  -18.1018 C   0  0  0  0  0  0  0  0  0  0  0  0
   32.2696  -13.1364  -19.1198 C   0  0  2  0  0  0  0  0  0  0  0  0
   32.5305  -14.4784  -19.5838 N   0  0  0  0  0  0  0  0  0  0  0  0
   33.5071  -12.5474  -18.5524 C   0  0  0  0  0  0  0  0  0  0  0  0
   34.4197  -13.3205  -18.1680 O   0  0  0  0  0  0  0  0  0  0  0  0
   26.1203  -13.5288  -21.9553 C   0  0  0  0  0  0  0  0  0  0  0  0
   35.2792   -9.1334  -19.8629 C   0  0  2  0  0  0  0  0  0  0  0  0
   35.9015  -10.2033  -18.9940 O   0  0  0  0  0  0  0  0  0  0  0  0
   37.0850   -9.7199  -18.4598 C   0  0  1  0  0  0  0  0  0  0  0  0
   34.9918  -10.6406  -17.8839 N   0  0  0  0  0  0  0  0  0  0  0  0
   33.7292  -11.1684  -18.4149 C   0  0  0  0  0  0  0  0  0  0  0  0
   34.6739   -9.5636  -16.9088 O   0  0  0  0  0  0  0  0  0  0  0  0
   33.7020   -8.7554  -17.1298 C   0  0  0  0  0  0  0  0  0  0  0  0
   36.0368   -8.2218  -13.6732 C   0  0  2  0  0  0  0  0  0  0  0  0
   35.0981   -8.1718  -14.8592 N   0  0  0  0  0  0  0  0  0  0  0  0
   35.3695   -9.3353  -15.7091 C   0  0  0  0  0  0  0  0  0  0  0  0
   35.2252   -6.9143  -15.5894 O   0  0  0  0  0  0  0  0  0  0  0  0
   36.2472   -6.6864  -16.4909 O   0  0  0  0  0  0  0  0  0  0  0  0
  2  1  1  0
  2  3  2  0
  4  5  1  0
  4  2  1  0
  6  5  1  0
  7  8  1  0
  7  6  1  0
  8  9  1  1
  8 10  1  0
 10 11  2  0
 10 16  1  0
 13 12  1  6
 13 14  1  0
 15 17  1  0
 15 13  1  0
 15 16  1  6
 17 18  2  0
 20 19  1  1
 21 20  1  0
 21 17  1  0
 22 20  1  0
 23 22  1  0
 24 22  2  0
M  END
$$$$
