VYD.pdb
     RDKit          3D

 28 28  0  0  1  0  0  0  0  0999 V2000
    7.6087  -16.8573   20.5363 C   0  0  0  0  0  0  0  0  0  0  0  0
    6.8353  -15.6075   20.7505 C   0  0  2  0  0  0  0  0  0  0  0  0
    5.9309  -15.2834   19.5549 C   0  0  0  0  0  0  0  0  0  0  0  0
    7.6724  -14.3642   20.9709 C   0  0  2  0  0  0  0  0  0  0  0  0
    8.5602  -14.1801   19.8166 N   0  0  0  0  0  0  0  0  0  0  0  0
    8.5581  -14.4617   22.1580 C   0  0  0  0  0  0  0  0  0  0  0  0
    9.8324  -14.3728   22.0344 O   0  0  0  0  0  0  0  0  0  0  0  0
   11.0831  -14.9741   30.7306 O   0  0  0  0  0  0  0  0  0  0  0  0
   10.3761  -14.8461   29.5356 C   0  0  0  0  0  0  0  0  0  0  0  0
   10.2951  -13.6491   28.8689 C   0  0  0  0  0  0  0  0  0  0  0  0
    9.5906  -13.5432   27.6879 C   0  0  0  0  0  0  0  0  0  0  0  0
    8.9366  -14.6141   27.1153 C   0  0  0  0  0  0  0  0  0  0  0  0
    8.1900  -14.4999   25.8623 C   0  0  0  0  0  0  0  0  0  0  0  0
    9.0190  -14.7001   24.6242 C   0  0  2  0  0  0  0  0  0  0  0  0
    8.1086  -14.6530   23.4921 N   0  0  0  0  0  0  0  0  0  0  0  0
    9.8375  -15.9217   24.6246 C   0  0  0  0  0  0  0  0  0  0  0  0
   10.8963  -15.9464   25.3034 O   0  0  0  0  0  0  0  0  0  0  0  0
    9.0310  -15.8187   27.8070 C   0  0  0  0  0  0  0  0  0  0  0  0
    9.7324  -15.9367   28.9885 C   0  0  0  0  0  0  0  0  0  0  0  0
    9.5148  -17.1005   23.9017 N   0  0  0  0  0  0  0  0  0  0  0  0
   10.3247  -18.2987   23.9526 C   0  0  1  0  0  0  0  0  0  0  0  0
   11.5605  -18.1812   23.0708 C   0  0  0  0  0  0  0  0  0  0  0  0
   12.4182  -19.3798   23.1057 C   0  0  0  0  0  0  0  0  0  0  0  0
   13.6630  -19.2700   23.0585 O   0  0  0  0  0  0  0  0  0  0  0  0
   10.7245  -18.6571   25.3252 C   0  0  0  0  0  0  0  0  0  0  0  0
   11.4903  -17.9074   25.9616 O   0  0  0  0  0  0  0  0  0  0  0  0
   11.8838  -20.6446   23.1904 O   0  0  0  0  0  0  0  0  0  0  0  0
   10.2698  -19.8088   25.9276 O   0  0  0  0  0  0  0  0  0  0  0  0
  2  1  1  6
  2  3  1  0
  4  2  1  0
  4  5  1  6
  6  7  2  0
  6  4  1  0
  9  8  1  0
 10  9  2  0
 11 10  1  0
 12 11  2  0
 12 18  1  0
 13 12  1  0
 14 13  1  1
 14 15  1  0
 15  6  1  0
 16 20  1  0
 16 14  1  0
 17 16  2  0
 18 19  2  0
 19  9  1  0
 21 20  1  0
 21 25  1  0
 21 22  1  6
 23 22  1  0
 24 23  2  0
 25 28  1  0
 26 25  2  0
 27 23  1  0
M  END
$$$$
