VYD.pdb
     RDKit          3D

 28 28  0  0  1  0  0  0  0  0999 V2000
    6.4776  -13.8771   18.7764 C   0  0  0  0  0  0  0  0  0  0  0  0
    7.3134  -13.6670   19.9861 C   0  0  2  0  0  0  0  0  0  0  0  0
    8.3296  -12.5353   19.7889 C   0  0  0  0  0  0  0  0  0  0  0  0
    8.1278  -14.8684   20.4204 C   0  0  2  0  0  0  0  0  0  0  0  0
    7.2162  -15.9883   20.6838 N   0  0  0  0  0  0  0  0  0  0  0  0
    8.8731  -14.6406   21.6836 C   0  0  0  0  0  0  0  0  0  0  0  0
   10.0127  -14.0502   21.6750 O   0  0  0  0  0  0  0  0  0  0  0  0
   10.9109  -14.9707   30.3930 O   0  0  0  0  0  0  0  0  0  0  0  0
   10.2709  -15.0183   29.1550 C   0  0  0  0  0  0  0  0  0  0  0  0
    9.8875  -16.2067   28.5854 C   0  0  0  0  0  0  0  0  0  0  0  0
    9.2555  -16.2325   27.3597 C   0  0  0  0  0  0  0  0  0  0  0  0
    8.9754  -15.0867   26.6449 C   0  0  0  0  0  0  0  0  0  0  0  0
    8.3046  -15.1159   25.3451 C   0  0  0  0  0  0  0  0  0  0  0  0
    9.1915  -14.7751   24.1799 C   0  0  2  0  0  0  0  0  0  0  0  0
    8.4234  -15.0323   22.9730 N   0  0  0  0  0  0  0  0  0  0  0  0
   10.4862  -15.4720   24.1699 C   0  0  0  0  0  0  0  0  0  0  0  0
   11.3312  -15.2022   25.0620 O   0  0  0  0  0  0  0  0  0  0  0  0
    9.3724  -13.8921   27.2400 C   0  0  0  0  0  0  0  0  0  0  0  0
   10.0049  -13.8539   28.4648 C   0  0  0  0  0  0  0  0  0  0  0  0
   10.8616  -16.4478   23.2090 N   0  0  0  0  0  0  0  0  0  0  0  0
   11.7327  -17.5609   23.5199 C   0  0  1  0  0  0  0  0  0  0  0  0
   11.1514  -18.4416   24.6176 C   0  0  0  0  0  0  0  0  0  0  0  0
   12.0228  -19.5743   24.9794 C   0  0  0  0  0  0  0  0  0  0  0  0
   11.8082  -20.7139   24.5112 O   0  0  0  0  0  0  0  0  0  0  0  0
   12.0498  -18.3822   22.3379 C   0  0  0  0  0  0  0  0  0  0  0  0
   12.8512  -19.3311   22.4415 O   0  0  0  0  0  0  0  0  0  0  0  0
   13.0892  -19.4173   25.8343 O   0  0  0  0  0  0  0  0  0  0  0  0
   11.4785  -18.1259   21.1115 O   0  0  0  0  0  0  0  0  0  0  0  0
  2  1  1  6
  2  3  1  0
  4  2  1  0
  4  5  1  1
  6  7  2  0
  6  4  1  0
  9  8  1  0
 10  9  2  0
 11 10  1  0
 12 11  2  0
 12 18  1  0
 13 12  1  0
 14 13  1  1
 14 15  1  0
 15  6  1  0
 16 20  1  0
 16 14  1  0
 17 16  2  0
 18 19  2  0
 19  9  1  0
 21 20  1  0
 21 25  1  0
 21 22  1  1
 23 22  1  0
 24 23  2  0
 25 28  1  0
 26 25  2  0
 27 23  1  0
M  END
$$$$
