VYD.pdb
     RDKit          3D

 28 28  0  0  1  0  0  0  0  0999 V2000
    8.4528  -17.9097   20.2012 C   0  0  0  0  0  0  0  0  0  0  0  0
    7.3706  -16.8977   20.3056 C   0  0  2  0  0  0  0  0  0  0  0  0
    6.4687  -16.8956   19.0650 C   0  0  0  0  0  0  0  0  0  0  0  0
    7.8427  -15.4667   20.4626 C   0  0  2  0  0  0  0  0  0  0  0  0
    8.7005  -15.1231   19.3223 N   0  0  0  0  0  0  0  0  0  0  0  0
    8.6706  -15.2568   21.6766 C   0  0  0  0  0  0  0  0  0  0  0  0
    9.9519  -15.2897   21.6100 O   0  0  0  0  0  0  0  0  0  0  0  0
   10.6821  -14.8251   30.3882 O   0  0  0  0  0  0  0  0  0  0  0  0
   10.0594  -14.7555   29.1425 C   0  0  0  0  0  0  0  0  0  0  0  0
   10.0773  -13.6084   28.3891 C   0  0  0  0  0  0  0  0  0  0  0  0
    9.4552  -13.5598   27.1591 C   0  0  0  0  0  0  0  0  0  0  0  0
    8.7894  -14.6412   26.6210 C   0  0  0  0  0  0  0  0  0  0  0  0
    8.1304  -14.5880   25.3159 C   0  0  0  0  0  0  0  0  0  0  0  0
    8.9902  -15.0351   24.1665 C   0  0  2  0  0  0  0  0  0  0  0  0
    8.1554  -15.0077   22.9769 N   0  0  0  0  0  0  0  0  0  0  0  0
    9.6383  -16.3411   24.3568 C   0  0  0  0  0  0  0  0  0  0  0  0
    8.9629  -17.3883   24.1847 O   0  0  0  0  0  0  0  0  0  0  0  0
    8.7830  -15.7947   27.4007 C   0  0  0  0  0  0  0  0  0  0  0  0
    9.4014  -15.8552   28.6318 C   0  0  0  0  0  0  0  0  0  0  0  0
   10.9984  -16.5123   24.7274 N   0  0  0  0  0  0  0  0  0  0  0  0
   11.6153  -17.8137   24.8694 C   0  0  1  0  0  0  0  0  0  0  0  0
   12.1631  -18.3250   23.5440 C   0  0  0  0  0  0  0  0  0  0  0  0
   12.8596  -19.6191   23.6610 C   0  0  0  0  0  0  0  0  0  0  0  0
   12.4335  -20.5002   24.4394 O   0  0  0  0  0  0  0  0  0  0  0  0
   12.6802  -17.8301   25.8881 C   0  0  0  0  0  0  0  0  0  0  0  0
   13.2379  -18.9053   26.1821 O   0  0  0  0  0  0  0  0  0  0  0  0
   13.9888  -19.8974   22.9260 O   0  0  0  0  0  0  0  0  0  0  0  0
   13.0783  -16.6782   26.5290 O   0  0  0  0  0  0  0  0  0  0  0  0
  2  1  1  6
  2  3  1  0
  4  2  1  0
  4  5  1  6
  6  7  2  0
  6  4  1  0
  9  8  1  0
 10  9  2  0
 11 10  1  0
 12 11  2  0
 12 18  1  0
 13 12  1  0
 14 13  1  1
 14 15  1  0
 15  6  1  0
 16 20  1  0
 16 14  1  0
 17 16  2  0
 18 19  2  0
 19  9  1  0
 21 20  1  0
 21 25  1  0
 21 22  1  6
 23 22  1  0
 24 23  2  0
 25 28  1  0
 26 25  2  0
 27 23  1  0
M  END
$$$$
