VYD.pdb
     RDKit          3D

 28 28  0  0  1  0  0  0  0  0999 V2000
    7.2732  -12.6443   19.0344 C   0  0  0  0  0  0  0  0  0  0  0  0
    8.2382  -13.5387   18.3453 C   0  0  2  0  0  0  0  0  0  0  0  0
    7.7449  -13.9454   16.9511 C   0  0  0  0  0  0  0  0  0  0  0  0
    8.5334  -14.8397   19.0633 C   0  0  2  0  0  0  0  0  0  0  0  0
    7.3539  -15.7086   18.9732 N   0  0  0  0  0  0  0  0  0  0  0  0
    8.7988  -14.6576   20.5123 C   0  0  0  0  0  0  0  0  0  0  0  0
    9.9420  -14.2424   20.9223 O   0  0  0  0  0  0  0  0  0  0  0  0
    7.6226  -13.0680   29.1557 O   0  0  0  0  0  0  0  0  0  0  0  0
    7.4563  -13.3388   27.7979 C   0  0  0  0  0  0  0  0  0  0  0  0
    7.2578  -12.3374   26.8807 C   0  0  0  0  0  0  0  0  0  0  0  0
    7.0953  -12.6261   25.5418 C   0  0  0  0  0  0  0  0  0  0  0  0
    7.1220  -13.9152   25.0521 C   0  0  0  0  0  0  0  0  0  0  0  0
    6.9498  -14.2195   23.6315 C   0  0  0  0  0  0  0  0  0  0  0  0
    8.1841  -14.7474   22.9546 C   0  0  2  0  0  0  0  0  0  0  0  0
    7.8591  -14.9104   21.5474 N   0  0  0  0  0  0  0  0  0  0  0  0
    8.7264  -15.9810   23.5430 C   0  0  0  0  0  0  0  0  0  0  0  0
    8.4345  -17.0866   23.0187 O   0  0  0  0  0  0  0  0  0  0  0  0
    7.3244  -14.9161   25.9985 C   0  0  0  0  0  0  0  0  0  0  0  0
    7.4880  -14.6396   27.3396 C   0  0  0  0  0  0  0  0  0  0  0  0
    9.5734  -16.0183   24.6822 N   0  0  0  0  0  0  0  0  0  0  0  0
   10.6579  -16.9661   24.8230 C   0  0  1  0  0  0  0  0  0  0  0  0
   11.6869  -16.8139   23.7111 C   0  0  0  0  0  0  0  0  0  0  0  0
   12.2013  -18.1023   23.2120 C   0  0  0  0  0  0  0  0  0  0  0  0
   11.4859  -19.1274   23.2487 O   0  0  0  0  0  0  0  0  0  0  0  0
   11.3247  -16.8765   26.1344 C   0  0  0  0  0  0  0  0  0  0  0  0
   11.6156  -15.7597   26.6049 O   0  0  0  0  0  0  0  0  0  0  0  0
   13.4709  -18.2184   22.6951 O   0  0  0  0  0  0  0  0  0  0  0  0
   11.6371  -18.0048   26.8593 O   0  0  0  0  0  0  0  0  0  0  0  0
  2  1  1  1
  2  3  1  0
  4  2  1  0
  4  5  1  1
  6  7  2  0
  6  4  1  0
  9  8  1  0
 10  9  2  0
 11 10  1  0
 12 11  2  0
 12 18  1  0
 13 12  1  0
 14 13  1  1
 14 15  1  0
 15  6  1  0
 16 20  1  0
 16 14  1  0
 17 16  2  0
 18 19  2  0
 19  9  1  0
 21 20  1  0
 21 25  1  0
 21 22  1  6
 23 22  1  0
 24 23  2  0
 25 28  1  0
 26 25  2  0
 27 23  1  0
M  END
$$$$
