VYD.pdb
     RDKit          3D

 28 28  0  0  1  0  0  0  0  0999 V2000
    6.7656  -15.0546   18.1181 C   0  0  0  0  0  0  0  0  0  0  0  0
    7.5295  -15.0407   19.3918 C   0  0  2  0  0  0  0  0  0  0  0  0
    7.1124  -16.1876   20.3207 C   0  0  0  0  0  0  0  0  0  0  0  0
    7.3790  -13.7791   20.2170 C   0  0  2  0  0  0  0  0  0  0  0  0
    7.9207  -12.6474   19.4553 N   0  0  0  0  0  0  0  0  0  0  0  0
    8.1431  -13.8207   21.4888 C   0  0  0  0  0  0  0  0  0  0  0  0
    9.4186  -13.6780   21.4923 O   0  0  0  0  0  0  0  0  0  0  0  0
    9.9593  -14.7217   30.2015 O   0  0  0  0  0  0  0  0  0  0  0  0
    9.3488  -14.5381   28.9614 C   0  0  0  0  0  0  0  0  0  0  0  0
    8.6953  -15.5602   28.3196 C   0  0  0  0  0  0  0  0  0  0  0  0
    8.0977  -15.3582   27.0931 C   0  0  0  0  0  0  0  0  0  0  0  0
    8.1199  -14.1390   26.4486 C   0  0  0  0  0  0  0  0  0  0  0  0
    7.4850  -13.9264   25.1477 C   0  0  0  0  0  0  0  0  0  0  0  0
    8.3748  -14.2059   23.9686 C   0  0  2  0  0  0  0  0  0  0  0  0
    7.5693  -14.0123   22.7743 N   0  0  0  0  0  0  0  0  0  0  0  0
    9.0245  -15.5248   23.9892 C   0  0  0  0  0  0  0  0  0  0  0  0
    8.3129  -16.5571   23.8864 O   0  0  0  0  0  0  0  0  0  0  0  0
    8.7875  -13.1157   27.1161 C   0  0  0  0  0  0  0  0  0  0  0  0
    9.3887  -13.3058   28.3426 C   0  0  0  0  0  0  0  0  0  0  0  0
   10.4244  -15.7246   24.1183 N   0  0  0  0  0  0  0  0  0  0  0  0
   11.0392  -17.0333   24.0590 C   0  0  1  0  0  0  0  0  0  0  0  0
   12.3268  -17.0145   23.2466 C   0  0  0  0  0  0  0  0  0  0  0  0
   13.0019  -18.3241   23.1930 C   0  0  0  0  0  0  0  0  0  0  0  0
   12.4057  -19.3601   23.5605 O   0  0  0  0  0  0  0  0  0  0  0  0
   11.3009  -17.5998   25.3943 C   0  0  0  0  0  0  0  0  0  0  0  0
   11.0079  -18.7881   25.6299 O   0  0  0  0  0  0  0  0  0  0  0  0
   14.2956  -18.4486   22.7420 O   0  0  0  0  0  0  0  0  0  0  0  0
   11.8655  -16.8433   26.3967 O   0  0  0  0  0  0  0  0  0  0  0  0
  2  1  1  6
  2  3  1  0
  4  2  1  0
  4  5  1  6
  6  7  2  0
  6  4  1  0
  9  8  1  0
 10  9  2  0
 11 10  1  0
 12 11  2  0
 12 18  1  0
 13 12  1  0
 14 13  1  1
 14 15  1  0
 15  6  1  0
 16 20  1  0
 16 14  1  0
 17 16  2  0
 18 19  2  0
 19  9  1  0
 21 20  1  0
 21 25  1  0
 21 22  1  1
 23 22  1  0
 24 23  2  0
 25 28  1  0
 26 25  2  0
 27 23  1  0
M  END
$$$$
