VYD.pdb
     RDKit          3D

 28 28  0  0  1  0  0  0  0  0999 V2000
    9.5816  -18.9869   20.2930 C   0  0  0  0  0  0  0  0  0  0  0  0
    8.4496  -18.3288   19.5917 C   0  0  2  0  0  0  0  0  0  0  0  0
    8.1130  -19.0281   18.2688 C   0  0  0  0  0  0  0  0  0  0  0  0
    8.6753  -16.8745   19.2324 C   0  0  2  0  0  0  0  0  0  0  0  0
    9.8772  -16.7742   18.3960 N   0  0  0  0  0  0  0  0  0  0  0  0
    8.9264  -16.0146   20.4160 C   0  0  0  0  0  0  0  0  0  0  0  0
   10.1222  -15.8051   20.8323 O   0  0  0  0  0  0  0  0  0  0  0  0
    7.0838  -11.9041   28.1451 O   0  0  0  0  0  0  0  0  0  0  0  0
    7.0450  -12.4252   26.8523 C   0  0  0  0  0  0  0  0  0  0  0  0
    7.4437  -11.6891   25.7646 C   0  0  0  0  0  0  0  0  0  0  0  0
    7.3975  -12.2228   24.4936 C   0  0  0  0  0  0  0  0  0  0  0  0
    6.9560  -13.5052   24.2428 C   0  0  0  0  0  0  0  0  0  0  0  0
    6.9081  -14.0697   22.8940 C   0  0  0  0  0  0  0  0  0  0  0  0
    8.1946  -14.6998   22.4375 C   0  0  2  0  0  0  0  0  0  0  0  0
    7.9170  -15.3634   21.1745 N   0  0  0  0  0  0  0  0  0  0  0  0
    8.8135  -15.6077   23.4145 C   0  0  0  0  0  0  0  0  0  0  0  0
    8.4270  -16.8037   23.4661 O   0  0  0  0  0  0  0  0  0  0  0  0
    6.5563  -14.2349   25.3592 C   0  0  0  0  0  0  0  0  0  0  0  0
    6.5979  -13.7120   26.6346 C   0  0  0  0  0  0  0  0  0  0  0  0
    9.8370  -15.2278   24.3226 N   0  0  0  0  0  0  0  0  0  0  0  0
   10.4159  -16.1446   25.2810 C   0  0  1  0  0  0  0  0  0  0  0  0
    9.3924  -17.1529   25.7853 C   0  0  0  0  0  0  0  0  0  0  0  0
    9.9451  -18.1041   26.7666 C   0  0  0  0  0  0  0  0  0  0  0  0
   10.7958  -17.7293   27.6031 O   0  0  0  0  0  0  0  0  0  0  0  0
   11.5937  -16.8537   24.7499 C   0  0  0  0  0  0  0  0  0  0  0  0
   12.7170  -16.6458   25.2483 O   0  0  0  0  0  0  0  0  0  0  0  0
    9.5480  -19.4210   26.7946 O   0  0  0  0  0  0  0  0  0  0  0  0
   11.4841  -17.7476   23.7083 O   0  0  0  0  0  0  0  0  0  0  0  0
  2  1  1  6
  2  3  1  0
  4  2  1  0
  4  5  1  6
  6  7  2  0
  6  4  1  0
  9  8  1  0
 10  9  2  0
 11 10  1  0
 12 11  2  0
 12 18  1  0
 13 12  1  0
 14 13  1  1
 14 15  1  0
 15  6  1  0
 16 20  1  0
 16 14  1  0
 17 16  2  0
 18 19  2  0
 19  9  1  0
 21 20  1  0
 21 25  1  0
 21 22  1  6
 23 22  1  0
 24 23  2  0
 25 28  1  0
 26 25  2  0
 27 23  1  0
M  END
$$$$
