DTA.pdb
     RDKit          3D

 21 20  0  0  1  0  0  0  0  0999 V2000
   11.1914  -16.8545   19.5669 N   0  0  0  0  0  0  0  0  0  0  0  0
   10.8698  -17.3740   20.9196 C   0  0  1  0  0  0  0  0  0  0  0  0
   11.9840  -18.2375   21.4040 C   0  0  0  0  0  0  0  0  0  0  0  0
   13.1156  -18.2612   20.4892 C   0  0  0  0  0  0  0  0  0  0  0  0
   13.8187  -17.2717   20.2548 O   0  0  0  0  0  0  0  0  0  0  0  0
   10.6067  -16.1998   21.7949 C   0  0  0  0  0  0  0  0  0  0  0  0
   11.3284  -15.1929   21.8256 O   0  0  0  0  0  0  0  0  0  0  0  0
   13.4622  -19.4477   19.8177 O   0  0  0  0  0  0  0  0  0  0  0  0
    7.0763  -14.5222   22.0524 C   0  0  0  0  0  0  0  0  0  0  0  0
    7.5874  -14.9762   23.3757 C   0  0  1  0  0  0  0  0  0  0  0  0
    7.0931  -16.2868   23.5746 O   0  0  0  0  0  0  0  0  0  0  0  0
    9.0970  -15.0438   23.4792 C   0  0  2  0  0  0  0  0  0  0  0  0
    9.4730  -16.1993   22.6572 N   0  0  0  0  0  0  0  0  0  0  0  0
    9.5852  -15.2355   24.8459 C   0  0  0  0  0  0  0  0  0  0  0  0
   10.0296  -16.3841   25.1936 O   0  0  0  0  0  0  0  0  0  0  0  0
   10.0787  -13.3058   28.0733 C   0  0  0  0  0  0  0  0  0  0  0  0
    9.9816  -14.5443   27.2354 C   0  0  2  0  0  0  0  0  0  0  0  0
    9.6240  -14.2628   25.8612 N   0  0  0  0  0  0  0  0  0  0  0  0
    8.9326  -15.4254   27.8020 C   0  0  0  0  0  0  0  0  0  0  0  0
    9.1277  -16.1794   28.9668 O   0  0  0  0  0  0  0  0  0  0  0  0
    7.8043  -15.5412   27.2603 O   0  0  0  0  0  0  0  0  0  0  0  0
  2  1  1  6
  3  2  1  0
  4  3  1  0
  5  4  2  0
  6  2  1  0
  7  6  2  0
  8  4  1  0
 10  9  1  6
 10 12  1  0
 11 10  1  0
 12 14  1  0
 12 13  1  6
 13  6  1  0
 14 18  1  0
 15 14  2  0
 17 16  1  1
 17 19  1  0
 18 17  1  0
 19 21  2  0
 19 20  1  0
M  END
$$$$
