DTA.pdb
     RDKit          3D

 21 20  0  0  1  0  0  0  0  0999 V2000
   12.3255  -14.6552   17.2790 N   0  0  0  0  0  0  0  0  0  0  0  0
   12.5094  -15.2258   18.6368 C   0  0  1  0  0  0  0  0  0  0  0  0
   13.9596  -15.2471   18.9804 C   0  0  0  0  0  0  0  0  0  0  0  0
   14.7503  -16.0204   18.0346 C   0  0  0  0  0  0  0  0  0  0  0  0
   14.4411  -17.1583   17.6633 O   0  0  0  0  0  0  0  0  0  0  0  0
   11.6901  -14.4117   19.5750 C   0  0  0  0  0  0  0  0  0  0  0  0
   11.9845  -13.2576   19.9170 O   0  0  0  0  0  0  0  0  0  0  0  0
   15.9319  -15.4849   17.4907 O   0  0  0  0  0  0  0  0  0  0  0  0
    8.4152  -13.1743   18.9763 C   0  0  0  0  0  0  0  0  0  0  0  0
    8.3123  -14.0658   20.1650 C   0  0  1  0  0  0  0  0  0  0  0  0
    8.0043  -15.3581   19.6786 O   0  0  0  0  0  0  0  0  0  0  0  0
    9.5851  -14.1821   20.9779 C   0  0  2  0  0  0  0  0  0  0  0  0
   10.4968  -14.9571   20.1293 N   0  0  0  0  0  0  0  0  0  0  0  0
    9.4049  -14.8689   22.2581 C   0  0  0  0  0  0  0  0  0  0  0  0
    9.7111  -16.1081   22.3490 O   0  0  0  0  0  0  0  0  0  0  0  0
    8.2099  -14.1833   25.7938 C   0  0  0  0  0  0  0  0  0  0  0  0
    8.7086  -15.0431   24.6724 C   0  0  2  0  0  0  0  0  0  0  0  0
    8.9150  -14.2998   23.4475 N   0  0  0  0  0  0  0  0  0  0  0  0
    7.7052  -16.0985   24.3950 C   0  0  0  0  0  0  0  0  0  0  0  0
    7.5057  -17.1935   25.2462 O   0  0  0  0  0  0  0  0  0  0  0  0
    6.9759  -16.0635   23.3718 O   0  0  0  0  0  0  0  0  0  0  0  0
  2  1  1  6
  3  2  1  0
  4  3  1  0
  5  4  2  0
  6  2  1  0
  7  6  2  0
  8  4  1  0
 10  9  1  6
 10 12  1  0
 11 10  1  0
 12 14  1  0
 12 13  1  6
 13  6  1  0
 14 18  1  0
 15 14  2  0
 17 16  1  1
 17 19  1  0
 18 17  1  0
 19 21  2  0
 19 20  1  0
M  END
$$$$
