DTA.pdb
     RDKit          3D

 21 20  0  0  1  0  0  0  0  0999 V2000
   10.9064  -17.8423   21.0965 N   0  0  0  0  0  0  0  0  0  0  0  0
   11.8878  -16.8077   21.5084 C   0  0  1  0  0  0  0  0  0  0  0  0
   12.3730  -16.0694   20.3079 C   0  0  0  0  0  0  0  0  0  0  0  0
   13.4338  -16.7749   19.6045 C   0  0  0  0  0  0  0  0  0  0  0  0
   13.4411  -18.0003   19.4419 O   0  0  0  0  0  0  0  0  0  0  0  0
   11.2182  -15.9348   22.5103 C   0  0  0  0  0  0  0  0  0  0  0  0
   11.6334  -14.8106   22.8256 O   0  0  0  0  0  0  0  0  0  0  0  0
   14.5235  -16.0664   19.0666 O   0  0  0  0  0  0  0  0  0  0  0  0
    7.1422  -15.9808   22.7672 C   0  0  0  0  0  0  0  0  0  0  0  0
    7.8661  -16.1355   24.0596 C   0  0  1  0  0  0  0  0  0  0  0  0
    8.0002  -17.5255   24.2866 O   0  0  0  0  0  0  0  0  0  0  0  0
    9.2587  -15.5399   24.0775 C   0  0  2  0  0  0  0  0  0  0  0  0
   10.0341  -16.3841   23.1621 N   0  0  0  0  0  0  0  0  0  0  0  0
    9.8852  -15.5481   25.4006 C   0  0  0  0  0  0  0  0  0  0  0  0
   10.7257  -16.4698   25.6864 O   0  0  0  0  0  0  0  0  0  0  0  0
   10.0251  -13.4563   28.5621 C   0  0  0  0  0  0  0  0  0  0  0  0
   10.3914  -14.6143   27.6844 C   0  0  2  0  0  0  0  0  0  0  0  0
    9.6608  -14.6215   26.4347 N   0  0  0  0  0  0  0  0  0  0  0  0
   10.0757  -15.8751   28.3977 C   0  0  0  0  0  0  0  0  0  0  0  0
   10.8394  -16.3454   29.4743 O   0  0  0  0  0  0  0  0  0  0  0  0
    9.0972  -16.5923   28.0690 O   0  0  0  0  0  0  0  0  0  0  0  0
  2  1  1  6
  3  2  1  0
  4  3  1  0
  5  4  2  0
  6  2  1  0
  7  6  2  0
  8  4  1  0
 10  9  1  6
 10 12  1  0
 11 10  1  0
 12 14  1  0
 12 13  1  6
 13  6  1  0
 14 18  1  0
 15 14  2  0
 17 16  1  1
 17 19  1  0
 18 17  1  0
 19 21  2  0
 19 20  1  0
M  END
$$$$
