DTA.pdb
     RDKit          3D

 21 20  0  0  1  0  0  0  0  0999 V2000
   11.0198  -17.2185   18.1617 N   0  0  0  0  0  0  0  0  0  0  0  0
   10.8196  -17.7150   19.5462 C   0  0  1  0  0  0  0  0  0  0  0  0
   12.0795  -18.3364   20.0441 C   0  0  0  0  0  0  0  0  0  0  0  0
   12.7589  -19.1236   19.0259 C   0  0  0  0  0  0  0  0  0  0  0  0
   13.6620  -18.6737   18.3116 O   0  0  0  0  0  0  0  0  0  0  0  0
   10.3618  -16.5627   20.3689 C   0  0  0  0  0  0  0  0  0  0  0  0
   11.0520  -15.5556   20.5813 O   0  0  0  0  0  0  0  0  0  0  0  0
   12.4022  -20.4672   18.8106 O   0  0  0  0  0  0  0  0  0  0  0  0
    7.0663  -14.7398   19.8138 C   0  0  0  0  0  0  0  0  0  0  0  0
    7.1264  -15.2642   21.2065 C   0  0  1  0  0  0  0  0  0  0  0  0
    6.4935  -16.5293   21.1923 O   0  0  0  0  0  0  0  0  0  0  0  0
    8.5279  -15.4678   21.7437 C   0  0  2  0  0  0  0  0  0  0  0  0
    9.0660  -16.5850   20.9599 N   0  0  0  0  0  0  0  0  0  0  0  0
    8.5692  -15.8040   23.1678 C   0  0  0  0  0  0  0  0  0  0  0  0
    8.7902  -17.0155   23.5160 O   0  0  0  0  0  0  0  0  0  0  0  0
    8.1971  -14.1573   26.5663 C   0  0  0  0  0  0  0  0  0  0  0  0
    8.3732  -15.3147   25.6308 C   0  0  2  0  0  0  0  0  0  0  0  0
    8.3872  -14.9124   24.2404 N   0  0  0  0  0  0  0  0  0  0  0  0
    7.2434  -16.2566   25.8157 C   0  0  0  0  0  0  0  0  0  0  0  0
    7.1972  -17.1842   26.8648 O   0  0  0  0  0  0  0  0  0  0  0  0
    6.2603  -16.2701   25.0324 O   0  0  0  0  0  0  0  0  0  0  0  0
  2  1  1  6
  3  2  1  0
  4  3  1  0
  5  4  2  0
  6  2  1  0
  7  6  2  0
  8  4  1  0
 10  9  1  6
 10 12  1  0
 11 10  1  0
 12 14  1  0
 12 13  1  6
 13  6  1  0
 14 18  1  0
 15 14  2  0
 17 16  1  1
 17 19  1  0
 18 17  1  0
 19 21  2  0
 19 20  1  0
M  END
$$$$
