DTA.pdb
     RDKit          3D

 21 20  0  0  1  0  0  0  0  0999 V2000
   10.2129  -18.2529   20.1949 N   0  0  0  0  0  0  0  0  0  0  0  0
   11.0512  -17.0299   20.2646 C   0  0  1  0  0  0  0  0  0  0  0  0
   11.4760  -16.6333   18.8921 C   0  0  0  0  0  0  0  0  0  0  0  0
   12.5694  -17.4484   18.3842 C   0  0  0  0  0  0  0  0  0  0  0  0
   13.0946  -18.3594   19.0342 O   0  0  0  0  0  0  0  0  0  0  0  0
   10.2548  -15.9852   20.9635 C   0  0  0  0  0  0  0  0  0  0  0  0
   10.5215  -14.7759   20.9180 O   0  0  0  0  0  0  0  0  0  0  0  0
   13.0847  -17.2231   17.0948 O   0  0  0  0  0  0  0  0  0  0  0  0
    6.2866  -16.0466   20.9876 C   0  0  0  0  0  0  0  0  0  0  0  0
    6.8726  -15.9841   22.3554 C   0  0  1  0  0  0  0  0  0  0  0  0
    6.9686  -17.3177   22.8179 O   0  0  0  0  0  0  0  0  0  0  0  0
    8.2620  -15.3842   22.4193 C   0  0  2  0  0  0  0  0  0  0  0  0
    9.1182  -16.3599   21.7358 N   0  0  0  0  0  0  0  0  0  0  0  0
    8.7504  -15.1749   23.7834 C   0  0  0  0  0  0  0  0  0  0  0  0
    9.5699  -16.0182   24.2882 O   0  0  0  0  0  0  0  0  0  0  0  0
    8.3609  -12.7588   26.6831 C   0  0  0  0  0  0  0  0  0  0  0  0
    8.8116  -14.0272   26.0247 C   0  0  2  0  0  0  0  0  0  0  0  0
    8.4091  -14.1100   24.6366 N   0  0  0  0  0  0  0  0  0  0  0  0
    8.2079  -15.1782   26.7379 C   0  0  0  0  0  0  0  0  0  0  0  0
    7.2363  -16.0026   26.1551 O   0  0  0  0  0  0  0  0  0  0  0  0
    8.5411  -15.4750   27.9130 O   0  0  0  0  0  0  0  0  0  0  0  0
  2  1  1  6
  3  2  1  0
  4  3  1  0
  5  4  2  0
  6  2  1  0
  7  6  2  0
  8  4  1  0
 10  9  1  6
 10 12  1  0
 11 10  1  0
 12 14  1  0
 12 13  1  6
 13  6  1  0
 14 18  1  0
 15 14  2  0
 17 16  1  1
 17 19  1  0
 18 17  1  0
 19 21  2  0
 19 20  1  0
M  END
$$$$
