DTA.pdb
     RDKit          3D

 21 20  0  0  1  0  0  0  0  0999 V2000
   11.4530  -17.3110   18.5058 N   0  0  0  0  0  0  0  0  0  0  0  0
   10.5799  -17.8568   19.5749 C   0  0  1  0  0  0  0  0  0  0  0  0
   11.2874  -18.9581   20.2878 C   0  0  0  0  0  0  0  0  0  0  0  0
   11.6214  -20.0715   19.4123 C   0  0  0  0  0  0  0  0  0  0  0  0
   12.6555  -20.7388   19.5285 O   0  0  0  0  0  0  0  0  0  0  0  0
   10.2026  -16.7231   20.4618 C   0  0  0  0  0  0  0  0  0  0  0  0
   11.0028  -15.8585   20.8461 O   0  0  0  0  0  0  0  0  0  0  0  0
   10.7527  -20.4412   18.3695 O   0  0  0  0  0  0  0  0  0  0  0  0
    6.9432  -14.5956   19.8628 C   0  0  0  0  0  0  0  0  0  0  0  0
    6.9994  -15.1757   21.2335 C   0  0  1  0  0  0  0  0  0  0  0  0
    6.3022  -16.4056   21.1833 O   0  0  0  0  0  0  0  0  0  0  0  0
    8.3974  -15.4708   21.7364 C   0  0  2  0  0  0  0  0  0  0  0  0
    8.8577  -16.5939   20.9126 N   0  0  0  0  0  0  0  0  0  0  0  0
    8.4468  -15.8478   23.1501 C   0  0  0  0  0  0  0  0  0  0  0  0
    8.5932  -17.0803   23.4616 O   0  0  0  0  0  0  0  0  0  0  0  0
    8.2205  -14.2771   26.5969 C   0  0  0  0  0  0  0  0  0  0  0  0
    8.3891  -15.4092   25.6297 C   0  0  2  0  0  0  0  0  0  0  0  0
    8.3486  -14.9756   24.2492 N   0  0  0  0  0  0  0  0  0  0  0  0
    7.2855  -16.3788   25.8296 C   0  0  0  0  0  0  0  0  0  0  0  0
    7.3404  -17.3982   26.7893 O   0  0  0  0  0  0  0  0  0  0  0  0
    6.2348  -16.3342   25.1411 O   0  0  0  0  0  0  0  0  0  0  0  0
  2  1  1  6
  3  2  1  0
  4  3  1  0
  5  4  2  0
  6  2  1  0
  7  6  2  0
  8  4  1  0
 10  9  1  6
 10 12  1  0
 11 10  1  0
 12 14  1  0
 12 13  1  6
 13  6  1  0
 14 18  1  0
 15 14  2  0
 17 16  1  1
 17 19  1  0
 18 17  1  0
 19 21  2  0
 19 20  1  0
M  END
$$$$
