HYM.pdb
     RDKit          3D

 31 32  0  0  1  0  0  0  0  0999 V2000
   23.0014  -21.3466  -19.4948 N   0  0  0  0  0  0  0  0  0  0  0  0
   22.6932  -20.3129  -18.4932 C   0  0  1  0  0  0  0  0  0  0  0  0
   21.4100  -19.6670  -18.9735 C   0  0  0  0  0  0  0  0  0  0  0  0
   21.0772  -18.5818  -18.0115 C   0  0  0  0  0  0  0  0  0  0  0  0
   20.0692  -18.6144  -17.0445 C   0  0  0  0  0  0  0  0  0  0  0  0
   20.0708  -17.4667  -16.3723 N   0  0  0  0  0  0  0  0  0  0  0  0
   21.0582  -16.6823  -16.8779 C   0  0  0  0  0  0  0  0  0  0  0  0
   21.6484  -17.3782  -17.8640 N   0  0  0  0  0  0  0  0  0  0  0  0
   22.5137  -20.9997  -17.1986 C   0  0  0  0  0  0  0  0  0  0  0  0
   21.8845  -22.0968  -17.0922 O   0  0  0  0  0  0  0  0  0  0  0  0
   26.7031  -25.6757  -16.9071 O   0  0  0  0  0  0  0  0  0  0  0  0
   26.0847  -24.6479  -16.2114 C   0  0  0  0  0  0  0  0  0  0  0  0
   25.0957  -24.9391  -15.2954 C   0  0  0  0  0  0  0  0  0  0  0  0
   24.4770  -23.9206  -14.6004 C   0  0  0  0  0  0  0  0  0  0  0  0
   24.8783  -22.6010  -14.8501 C   0  0  0  0  0  0  0  0  0  0  0  0
   24.2228  -21.4884  -14.1356 C   0  0  0  0  0  0  0  0  0  0  0  0
   22.9034  -21.1032  -14.7133 C   0  0  2  0  0  0  0  0  0  0  0  0
   23.0394  -20.4608  -16.0107 N   0  0  0  0  0  0  0  0  0  0  0  0
   22.0920  -20.2936  -13.7935 C   0  0  0  0  0  0  0  0  0  0  0  0
   22.3227  -19.0878  -13.5531 O   0  0  0  0  0  0  0  0  0  0  0  0
   25.8680  -22.3238  -15.7683 C   0  0  0  0  0  0  0  0  0  0  0  0
   26.4892  -23.3449  -16.4658 C   0  0  0  0  0  0  0  0  0  0  0  0
   15.4356  -20.7273  -14.7980 C   0  0  0  0  0  0  0  0  0  0  0  0
   16.4037  -21.1166  -13.3404 S   0  0  0  0  0  0  0  0  0  0  0  0
   18.0550  -20.3887  -13.3780 C   0  0  0  0  0  0  0  0  0  0  0  0
   18.8077  -20.5916  -12.1070 C   0  0  0  0  0  0  0  0  0  0  0  0
   20.2188  -20.0474  -12.1227 C   0  0  2  0  0  0  0  0  0  0  0  0
   20.9569  -20.8506  -13.0977 N   0  0  0  0  0  0  0  0  0  0  0  0
   20.8972  -20.0936  -10.8345 C   0  0  0  0  0  0  0  0  0  0  0  0
   20.5071  -19.3858   -9.8774 O   0  0  0  0  0  0  0  0  0  0  0  0
   21.9864  -20.9182  -10.6341 O   0  0  0  0  0  0  0  0  0  0  0  0
  2  1  1  6
  3  2  1  0
  3  4  1  0
  4  8  1  0
  4  5  2  0
  5  6  1  0
  7  6  1  0
  8  7  2  0
  9 18  1  0
  9  2  1  0
 10  9  2  0
 11 12  1  0
 12 13  2  0
 13 14  1  0
 15 16  1  0
 15 14  2  0
 17 16  1  1
 17 18  1  0
 19 17  1  0
 20 19  2  0
 21 15  1  0
 22 21  2  0
 22 12  1  0
 23 24  1  0
 24 25  1  0
 27 26  1  1
 26 25  1  0
 27 28  1  0
 28 19  1  0
 29 31  1  0
 29 27  1  0
 30 29  2  0
M  END
$$$$
