HYM.pdb
     RDKit          3D

 31 32  0  0  1  0  0  0  0  0999 V2000
   25.7957  -23.3691  -16.8903 N   0  0  0  0  0  0  0  0  0  0  0  0
   25.1750  -23.5339  -15.5658 C   0  0  1  0  0  0  0  0  0  0  0  0
   25.3257  -25.0052  -15.2387 C   0  0  0  0  0  0  0  0  0  0  0  0
   24.2278  -25.7259  -15.9379 C   0  0  0  0  0  0  0  0  0  0  0  0
   23.1091  -26.3103  -15.3385 C   0  0  0  0  0  0  0  0  0  0  0  0
   22.3472  -26.8618  -16.2789 N   0  0  0  0  0  0  0  0  0  0  0  0
   22.9423  -26.6515  -17.4820 C   0  0  0  0  0  0  0  0  0  0  0  0
   24.0732  -25.9651  -17.2477 N   0  0  0  0  0  0  0  0  0  0  0  0
   25.9249  -22.6801  -14.6232 C   0  0  0  0  0  0  0  0  0  0  0  0
   27.1860  -22.7498  -14.4981 O   0  0  0  0  0  0  0  0  0  0  0  0
   28.6534  -17.5243  -17.4368 O   0  0  0  0  0  0  0  0  0  0  0  0
   27.9262  -18.0057  -16.3587 C   0  0  0  0  0  0  0  0  0  0  0  0
   26.5584  -17.8329  -16.3235 C   0  0  0  0  0  0  0  0  0  0  0  0
   25.8297  -18.3096  -15.2535 C   0  0  0  0  0  0  0  0  0  0  0  0
   26.5118  -18.9650  -14.2191 C   0  0  0  0  0  0  0  0  0  0  0  0
   25.7625  -19.4703  -13.0524 C   0  0  0  0  0  0  0  0  0  0  0  0
   25.9450  -20.9305  -12.8127 C   0  0  2  0  0  0  0  0  0  0  0  0
   25.2655  -21.7392  -13.8121 N   0  0  0  0  0  0  0  0  0  0  0  0
   25.5753  -21.3357  -11.4493 C   0  0  0  0  0  0  0  0  0  0  0  0
   24.4777  -21.8632  -11.1628 O   0  0  0  0  0  0  0  0  0  0  0  0
   27.8792  -19.1309  -14.2667 C   0  0  0  0  0  0  0  0  0  0  0  0
   28.6109  -18.6530  -15.3397 C   0  0  0  0  0  0  0  0  0  0  0  0
   29.4902  -20.2142   -5.9610 C   0  0  0  0  0  0  0  0  0  0  0  0
   27.8967  -19.4281   -5.7249 S   0  0  0  0  0  0  0  0  0  0  0  0
   26.5879  -20.1808   -6.7142 C   0  0  0  0  0  0  0  0  0  0  0  0
   26.9848  -20.3948   -8.1354 C   0  0  0  0  0  0  0  0  0  0  0  0
   25.9618  -21.1384   -8.9648 C   0  0  2  0  0  0  0  0  0  0  0  0
   26.4733  -21.1469  -10.3355 N   0  0  0  0  0  0  0  0  0  0  0  0
   24.6276  -20.5541   -8.9424 C   0  0  0  0  0  0  0  0  0  0  0  0
   24.3576  -19.5429   -9.6308 O   0  0  0  0  0  0  0  0  0  0  0  0
   23.6262  -21.0989   -8.1635 O   0  0  0  0  0  0  0  0  0  0  0  0
  2  1  1  6
  3  2  1  0
  3  4  1  0
  4  8  1  0
  4  5  2  0
  5  6  1  0
  7  6  1  0
  8  7  2  0
  9 18  1  0
  9  2  1  0
 10  9  2  0
 11 12  1  0
 12 13  2  0
 13 14  1  0
 15 16  1  0
 15 14  2  0
 17 16  1  6
 17 18  1  0
 19 17  1  0
 20 19  2  0
 21 15  1  0
 22 21  2  0
 22 12  1  0
 23 24  1  0
 24 25  1  0
 27 26  1  1
 26 25  1  0
 27 28  1  0
 28 19  1  0
 29 31  1  0
 29 27  1  0
 30 29  2  0
M  END
$$$$
