HYM.pdb
     RDKit          3D

 31 32  0  0  1  0  0  0  0  0999 V2000
   26.5154  -18.5145  -16.9087 N   0  0  0  0  0  0  0  0  0  0  0  0
   27.2339  -18.9427  -15.6975 C   0  0  1  0  0  0  0  0  0  0  0  0
   28.3283  -17.9137  -15.5023 C   0  0  0  0  0  0  0  0  0  0  0  0
   29.2604  -18.0390  -16.6552 C   0  0  0  0  0  0  0  0  0  0  0  0
   29.6428  -17.0142  -17.5246 C   0  0  0  0  0  0  0  0  0  0  0  0
   30.4868  -17.5010  -18.4300 N   0  0  0  0  0  0  0  0  0  0  0  0
   30.6659  -18.8230  -18.1729 C   0  0  0  0  0  0  0  0  0  0  0  0
   29.9157  -19.1208  -17.0988 N   0  0  0  0  0  0  0  0  0  0  0  0
   26.2618  -18.9310  -14.5865 C   0  0  0  0  0  0  0  0  0  0  0  0
   25.5725  -17.9054  -14.2966 O   0  0  0  0  0  0  0  0  0  0  0  0
   19.6017  -20.5992   -9.4991 O   0  0  0  0  0  0  0  0  0  0  0  0
   20.6480  -20.6504  -10.4077 C   0  0  0  0  0  0  0  0  0  0  0  0
   20.9012  -19.5666  -11.2221 C   0  0  0  0  0  0  0  0  0  0  0  0
   21.9406  -19.6118  -12.1279 C   0  0  0  0  0  0  0  0  0  0  0  0
   22.7195  -20.7752  -12.1942 C   0  0  0  0  0  0  0  0  0  0  0  0
   23.8273  -20.8609  -13.1656 C   0  0  0  0  0  0  0  0  0  0  0  0
   25.0572  -20.1374  -12.7335 C   0  0  2  0  0  0  0  0  0  0  0  0
   26.0541  -20.0714  -13.7901 N   0  0  0  0  0  0  0  0  0  0  0  0
   25.6261  -20.6717  -11.4883 C   0  0  0  0  0  0  0  0  0  0  0  0
   26.0232  -21.8516  -11.3648 O   0  0  0  0  0  0  0  0  0  0  0  0
   22.4556  -21.8514  -11.3745 C   0  0  0  0  0  0  0  0  0  0  0  0
   21.4131  -21.8068  -10.4655 C   0  0  0  0  0  0  0  0  0  0  0  0
   29.3194  -19.0738   -4.7044 C   0  0  0  0  0  0  0  0  0  0  0  0
   28.5604  -18.5208   -6.2313 S   0  0  0  0  0  0  0  0  0  0  0  0
   27.5029  -19.7744   -6.9850 C   0  0  0  0  0  0  0  0  0  0  0  0
   26.9758  -19.3639   -8.3180 C   0  0  0  0  0  0  0  0  0  0  0  0
   26.2033  -20.4427   -9.0439 C   0  0  2  0  0  0  0  0  0  0  0  0
   25.7646  -19.8522  -10.3085 N   0  0  0  0  0  0  0  0  0  0  0  0
   25.0504  -20.9532   -8.3144 C   0  0  0  0  0  0  0  0  0  0  0  0
   23.8955  -20.5389   -8.5671 O   0  0  0  0  0  0  0  0  0  0  0  0
   25.1995  -21.9064   -7.3267 O   0  0  0  0  0  0  0  0  0  0  0  0
  2  1  1  6
  3  2  1  0
  3  4  1  0
  4  8  1  0
  4  5  2  0
  5  6  1  0
  7  6  1  0
  8  7  2  0
  9 18  1  0
  9  2  1  0
 10  9  2  0
 11 12  1  0
 12 13  2  0
 13 14  1  0
 15 16  1  0
 15 14  2  0
 17 16  1  6
 17 18  1  0
 19 17  1  0
 20 19  2  0
 21 15  1  0
 22 21  2  0
 22 12  1  0
 23 24  1  0
 24 25  1  0
 27 26  1  1
 26 25  1  0
 27 28  1  0
 28 19  1  0
 29 31  1  0
 29 27  1  0
 30 29  2  0
M  END
$$$$
