HYM.pdb
     RDKit          3D

 31 32  0  0  1  0  0  0  0  0999 V2000
   45.5770  -10.4514   -9.7979 N   0  0  0  0  0  0  0  0  0  0  0  0
   45.2431   -9.1303   -9.2411 C   0  0  1  0  0  0  0  0  0  0  0  0
   45.9065   -8.1317  -10.1670 C   0  0  0  0  0  0  0  0  0  0  0  0
   47.2753   -7.8844   -9.6389 C   0  0  0  0  0  0  0  0  0  0  0  0
   48.4636   -7.9179  -10.3733 C   0  0  0  0  0  0  0  0  0  0  0  0
   49.4847   -7.6467   -9.5655 N   0  0  0  0  0  0  0  0  0  0  0  0
   48.9916   -7.4361   -8.3171 C   0  0  0  0  0  0  0  0  0  0  0  0
   47.6583   -7.5854   -8.3897 N   0  0  0  0  0  0  0  0  0  0  0  0
   43.7720   -9.0076   -9.2610 C   0  0  0  0  0  0  0  0  0  0  0  0
   43.0809   -9.2767  -10.2911 O   0  0  0  0  0  0  0  0  0  0  0  0
   35.4751   -8.6965   -6.4384 O   0  0  0  0  0  0  0  0  0  0  0  0
   36.8583   -8.7494   -6.5212 C   0  0  0  0  0  0  0  0  0  0  0  0
   37.4823   -9.9475   -6.7993 C   0  0  0  0  0  0  0  0  0  0  0  0
   38.8580  -10.0061   -6.8829 C   0  0  0  0  0  0  0  0  0  0  0  0
   39.5909   -8.8288   -6.6794 C   0  0  0  0  0  0  0  0  0  0  0  0
   41.0649   -8.8629   -6.7444 C   0  0  0  0  0  0  0  0  0  0  0  0
   41.6125   -8.4820   -8.0778 C   0  0  2  0  0  0  0  0  0  0  0  0
   43.0625   -8.5817   -8.1238 N   0  0  0  0  0  0  0  0  0  0  0  0
   41.1483   -7.1630   -8.5299 C   0  0  0  0  0  0  0  0  0  0  0  0
   41.6823   -6.0882   -8.1765 O   0  0  0  0  0  0  0  0  0  0  0  0
   38.9548   -7.6380   -6.4021 C   0  0  0  0  0  0  0  0  0  0  0  0
   37.5748   -7.5783   -6.3182 C   0  0  0  0  0  0  0  0  0  0  0  0
   36.4463   -3.5845  -13.9065 C   0  0  0  0  0  0  0  0  0  0  0  0
   37.0602   -5.0723  -13.1173 S   0  0  0  0  0  0  0  0  0  0  0  0
   38.1192   -4.7289  -11.6965 C   0  0  0  0  0  0  0  0  0  0  0  0
   38.7219   -5.9604  -11.1108 C   0  0  0  0  0  0  0  0  0  0  0  0
   39.6508   -5.7076   -9.9442 C   0  0  2  0  0  0  0  0  0  0  0  0
   40.0264   -7.0236   -9.4269 N   0  0  0  0  0  0  0  0  0  0  0  0
   39.0710   -4.9068   -8.8744 C   0  0  0  0  0  0  0  0  0  0  0  0
   38.2855   -5.4178   -8.0431 O   0  0  0  0  0  0  0  0  0  0  0  0
   39.3718   -3.5652   -8.7479 O   0  0  0  0  0  0  0  0  0  0  0  0
  2  1  1  6
  3  2  1  0
  3  4  1  0
  4  8  1  0
  4  5  2  0
  5  6  1  0
  7  6  1  0
  8  7  2  0
  9 18  1  0
  9  2  1  0
 10  9  2  0
 11 12  1  0
 12 13  2  0
 13 14  1  0
 15 16  1  0
 15 14  2  0
 17 16  1  1
 17 18  1  0
 19 17  1  0
 20 19  2  0
 21 15  1  0
 22 21  2  0
 22 12  1  0
 23 24  1  0
 24 25  1  0
 27 26  1  6
 26 25  1  0
 27 28  1  0
 28 19  1  0
 29 31  1  0
 29 27  1  0
 30 29  2  0
M  END
$$$$
