HYM.pdb
     RDKit          3D

 31 32  0  0  1  0  0  0  0  0999 V2000
   17.9433  -10.7438  -18.0814 N   0  0  0  0  0  0  0  0  0  0  0  0
   19.0241   -9.7467  -18.1463 C   0  0  1  0  0  0  0  0  0  0  0  0
   18.7934   -8.9970  -19.4421 C   0  0  0  0  0  0  0  0  0  0  0  0
   19.1390   -9.9236  -20.5537 C   0  0  0  0  0  0  0  0  0  0  0  0
   20.4057  -10.1063  -21.1143 C   0  0  0  0  0  0  0  0  0  0  0  0
   20.3281  -11.0137  -22.0837 N   0  0  0  0  0  0  0  0  0  0  0  0
   19.0377  -11.4298  -22.1707 C   0  0  0  0  0  0  0  0  0  0  0  0
   18.3430  -10.7572  -21.2379 N   0  0  0  0  0  0  0  0  0  0  0  0
   18.8791   -8.8688  -16.9681 C   0  0  0  0  0  0  0  0  0  0  0  0
   17.7483   -8.5865  -16.4654 O   0  0  0  0  0  0  0  0  0  0  0  0
   19.9171   -5.7092   -9.0443 O   0  0  0  0  0  0  0  0  0  0  0  0
   20.1413   -6.2980  -10.2795 C   0  0  0  0  0  0  0  0  0  0  0  0
   21.1234   -5.7975  -11.1084 C   0  0  0  0  0  0  0  0  0  0  0  0
   21.3510   -6.3792  -12.3384 C   0  0  0  0  0  0  0  0  0  0  0  0
   20.5654   -7.4776  -12.7141 C   0  0  0  0  0  0  0  0  0  0  0  0
   20.7727   -8.1102  -14.0313 C   0  0  0  0  0  0  0  0  0  0  0  0
   19.9273   -7.5281  -15.1126 C   0  0  2  0  0  0  0  0  0  0  0  0
   20.0028   -8.2995  -16.3429 N   0  0  0  0  0  0  0  0  0  0  0  0
   20.2054   -6.1048  -15.3508 C   0  0  0  0  0  0  0  0  0  0  0  0
   21.2057   -5.6961  -15.9814 O   0  0  0  0  0  0  0  0  0  0  0  0
   19.5871   -7.9678  -11.8762 C   0  0  0  0  0  0  0  0  0  0  0  0
   19.3582   -7.3849  -10.6421 C   0  0  0  0  0  0  0  0  0  0  0  0
   16.7757    0.8994  -16.4611 C   0  0  0  0  0  0  0  0  0  0  0  0
   16.6877   -0.8423  -16.0465 S   0  0  0  0  0  0  0  0  0  0  0  0
   18.2946   -1.5460  -15.6214 C   0  0  0  0  0  0  0  0  0  0  0  0
   18.2413   -3.0184  -15.3929 C   0  0  0  0  0  0  0  0  0  0  0  0
   19.5901   -3.6656  -15.1707 C   0  0  2  0  0  0  0  0  0  0  0  0
   19.3245   -5.0710  -14.8630 N   0  0  0  0  0  0  0  0  0  0  0  0
   20.3762   -3.0686  -14.0996 C   0  0  0  0  0  0  0  0  0  0  0  0
   21.4314   -2.4417  -14.3499 O   0  0  0  0  0  0  0  0  0  0  0  0
   19.9794   -3.1770  -12.7815 O   0  0  0  0  0  0  0  0  0  0  0  0
  2  1  1  1
  3  2  1  0
  3  4  1  0
  4  8  1  0
  4  5  2  0
  5  6  1  0
  7  6  1  0
  8  7  2  0
  9 18  1  0
  9  2  1  0
 10  9  2  0
 11 12  1  0
 12 13  2  0
 13 14  1  0
 15 16  1  0
 15 14  2  0
 17 16  1  1
 17 18  1  0
 19 17  1  0
 20 19  2  0
 21 15  1  0
 22 21  2  0
 22 12  1  0
 23 24  1  0
 24 25  1  0
 27 26  1  1
 26 25  1  0
 27 28  1  0
 28 19  1  0
 29 31  1  0
 29 27  1  0
 30 29  2  0
M  END
$$$$
