HYM.pdb
     RDKit          3D

 31 32  0  0  1  0  0  0  0  0999 V2000
   27.9775  -20.8234  -15.1131 N   0  0  0  0  0  0  0  0  0  0  0  0
   27.8265  -19.4220  -14.6889 C   0  0  1  0  0  0  0  0  0  0  0  0
   27.1078  -18.7376  -15.8333 C   0  0  0  0  0  0  0  0  0  0  0  0
   28.0314  -18.7449  -16.9998 C   0  0  0  0  0  0  0  0  0  0  0  0
   28.0010  -19.6390  -18.0730 C   0  0  0  0  0  0  0  0  0  0  0  0
   28.9785  -19.3359  -18.9224 N   0  0  0  0  0  0  0  0  0  0  0  0
   29.6492  -18.2622  -18.4292 C   0  0  0  0  0  0  0  0  0  0  0  0
   29.0580  -17.9266  -17.2703 N   0  0  0  0  0  0  0  0  0  0  0  0
   27.0184  -19.4247  -13.4533 C   0  0  0  0  0  0  0  0  0  0  0  0
   26.4124  -18.3911  -13.0347 O   0  0  0  0  0  0  0  0  0  0  0  0
   20.8235  -19.6729  -15.2009 O   0  0  0  0  0  0  0  0  0  0  0  0
   21.8291  -20.1728  -14.3874 C   0  0  0  0  0  0  0  0  0  0  0  0
   22.8449  -20.9254  -14.9385 C   0  0  0  0  0  0  0  0  0  0  0  0
   23.8480  -21.4253  -14.1341 C   0  0  0  0  0  0  0  0  0  0  0  0
   23.8036  -21.1491  -12.7606 C   0  0  0  0  0  0  0  0  0  0  0  0
   24.8524  -21.6851  -11.8713 C   0  0  0  0  0  0  0  0  0  0  0  0
   25.9400  -20.7092  -11.5754 C   0  0  2  0  0  0  0  0  0  0  0  0
   26.8828  -20.5888  -12.6758 N   0  0  0  0  0  0  0  0  0  0  0  0
   26.6261  -20.9867  -10.3057 C   0  0  0  0  0  0  0  0  0  0  0  0
   27.8705  -21.0563  -10.1978 O   0  0  0  0  0  0  0  0  0  0  0  0
   22.7825  -20.3957  -12.2227 C   0  0  0  0  0  0  0  0  0  0  0  0
   21.7760  -19.8938  -13.0289 C   0  0  0  0  0  0  0  0  0  0  0  0
   28.9310  -19.9756   -4.0820 C   0  0  0  0  0  0  0  0  0  0  0  0
   28.6446  -20.2987   -5.8218 S   0  0  0  0  0  0  0  0  0  0  0  0
   27.6866  -18.9996   -6.6298 C   0  0  0  0  0  0  0  0  0  0  0  0
   26.9820  -19.4748   -7.8549 C   0  0  0  0  0  0  0  0  0  0  0  0
   26.5106  -20.9104   -7.7875 C   0  0  2  0  0  0  0  0  0  0  0  0
   25.8923  -21.1998   -9.0814 N   0  0  0  0  0  0  0  0  0  0  0  0
   25.5606  -21.1833   -6.7175 C   0  0  0  0  0  0  0  0  0  0  0  0
   24.5033  -20.5196   -6.6125 O   0  0  0  0  0  0  0  0  0  0  0  0
   25.7994  -22.1799   -5.7922 O   0  0  0  0  0  0  0  0  0  0  0  0
  2  1  1  6
  3  2  1  0
  3  4  1  0
  4  8  1  0
  4  5  2  0
  5  6  1  0
  7  6  1  0
  8  7  2  0
  9 18  1  0
  9  2  1  0
 10  9  2  0
 11 12  1  0
 12 13  2  0
 13 14  1  0
 15 16  1  0
 15 14  2  0
 17 16  1  6
 17 18  1  0
 19 17  1  0
 20 19  2  0
 21 15  1  0
 22 21  2  0
 22 12  1  0
 23 24  1  0
 24 25  1  0
 27 26  1  6
 26 25  1  0
 27 28  1  0
 28 19  1  0
 29 31  1  0
 29 27  1  0
 30 29  2  0
M  END
$$$$
