HYM.pdb
     RDKit          3D

 31 32  0  0  1  0  0  0  0  0999 V2000
   24.9376  -17.7292  -18.7248 N   0  0  0  0  0  0  0  0  0  0  0  0
   25.5115  -18.8226  -17.9238 C   0  0  1  0  0  0  0  0  0  0  0  0
   27.0059  -18.5753  -17.9301 C   0  0  0  0  0  0  0  0  0  0  0  0
   27.5155  -18.9949  -19.2635 C   0  0  0  0  0  0  0  0  0  0  0  0
   27.8954  -18.1477  -20.3076 C   0  0  0  0  0  0  0  0  0  0  0  0
   28.2977  -18.8812  -21.3415 N   0  0  0  0  0  0  0  0  0  0  0  0
   28.1898  -20.1912  -20.9978 C   0  0  0  0  0  0  0  0  0  0  0  0
   27.7163  -20.2311  -19.7410 N   0  0  0  0  0  0  0  0  0  0  0  0
   24.9407  -18.7152  -16.5665 C   0  0  0  0  0  0  0  0  0  0  0  0
   24.8922  -17.6158  -15.9341 O   0  0  0  0  0  0  0  0  0  0  0  0
   20.0576  -20.1794   -9.4781 O   0  0  0  0  0  0  0  0  0  0  0  0
   20.6464  -20.1901  -10.7335 C   0  0  0  0  0  0  0  0  0  0  0  0
   20.6150  -19.0537  -11.5142 C   0  0  0  0  0  0  0  0  0  0  0  0
   21.1990  -19.0585  -12.7640 C   0  0  0  0  0  0  0  0  0  0  0  0
   21.8158  -20.2359  -13.2091 C   0  0  0  0  0  0  0  0  0  0  0  0
   22.4336  -20.2779  -14.5488 C   0  0  0  0  0  0  0  0  0  0  0  0
   23.8422  -19.7900  -14.5720 C   0  0  2  0  0  0  0  0  0  0  0  0
   24.4184  -19.8417  -15.9061 N   0  0  0  0  0  0  0  0  0  0  0  0
   24.6977  -20.4688  -13.5887 C   0  0  0  0  0  0  0  0  0  0  0  0
   25.2006  -21.5984  -13.7788 O   0  0  0  0  0  0  0  0  0  0  0  0
   21.8400  -21.3648  -12.4188 C   0  0  0  0  0  0  0  0  0  0  0  0
   21.2545  -21.3607  -11.1649 C   0  0  0  0  0  0  0  0  0  0  0  0
   28.3040  -19.5767   -6.5014 C   0  0  0  0  0  0  0  0  0  0  0  0
   27.2770  -18.9263   -7.8187 S   0  0  0  0  0  0  0  0  0  0  0  0
   26.9152  -20.1485   -9.0968 C   0  0  0  0  0  0  0  0  0  0  0  0
   26.1245  -19.5871  -10.2294 C   0  0  0  0  0  0  0  0  0  0  0  0
   25.8668  -20.5629  -11.3559 C   0  0  2  0  0  0  0  0  0  0  0  0
   25.0169  -19.8621  -12.3187 N   0  0  0  0  0  0  0  0  0  0  0  0
   25.2227  -21.8028  -10.9439 C   0  0  0  0  0  0  0  0  0  0  0  0
   25.8806  -22.8634  -10.8363 O   0  0  0  0  0  0  0  0  0  0  0  0
   23.8719  -21.8420  -10.6608 O   0  0  0  0  0  0  0  0  0  0  0  0
  2  1  1  6
  3  2  1  0
  3  4  1  0
  4  8  1  0
  4  5  2  0
  5  6  1  0
  7  6  1  0
  8  7  2  0
  9 18  1  0
  9  2  1  0
 10  9  2  0
 11 12  1  0
 12 13  2  0
 13 14  1  0
 15 16  1  0
 15 14  2  0
 17 16  1  6
 17 18  1  0
 19 17  1  0
 20 19  2  0
 21 15  1  0
 22 21  2  0
 22 12  1  0
 23 24  1  0
 24 25  1  0
 27 26  1  1
 26 25  1  0
 27 28  1  0
 28 19  1  0
 29 31  1  0
 29 27  1  0
 30 29  2  0
M  END
$$$$
