HYM.pdb
     RDKit          3D

 31 32  0  0  1  0  0  0  0  0999 V2000
   26.5392  -22.2223  -17.2713 N   0  0  0  0  0  0  0  0  0  0  0  0
   26.4203  -22.8870  -15.9634 C   0  0  1  0  0  0  0  0  0  0  0  0
   27.4776  -23.9716  -15.9732 C   0  0  0  0  0  0  0  0  0  0  0  0
   26.9305  -25.1118  -16.7570 C   0  0  0  0  0  0  0  0  0  0  0  0
   25.9843  -26.0403  -16.3157 C   0  0  0  0  0  0  0  0  0  0  0  0
   25.7394  -26.9119  -17.2900 N   0  0  0  0  0  0  0  0  0  0  0  0
   26.5049  -26.5750  -18.3607 C   0  0  0  0  0  0  0  0  0  0  0  0
   27.2125  -25.4872  -18.0125 N   0  0  0  0  0  0  0  0  0  0  0  0
   26.6866  -21.8669  -14.9298 C   0  0  0  0  0  0  0  0  0  0  0  0
   27.7601  -21.1902  -14.9027 O   0  0  0  0  0  0  0  0  0  0  0  0
   27.0839  -16.2947  -17.3772 O   0  0  0  0  0  0  0  0  0  0  0  0
   26.6147  -17.0631  -16.3226 C   0  0  0  0  0  0  0  0  0  0  0  0
   25.5644  -17.9339  -16.5241 C   0  0  0  0  0  0  0  0  0  0  0  0
   25.0934  -18.7008  -15.4786 C   0  0  0  0  0  0  0  0  0  0  0  0
   25.7056  -18.5698  -14.2246 C   0  0  0  0  0  0  0  0  0  0  0  0
   25.2125  -19.3634  -13.0821 C   0  0  0  0  0  0  0  0  0  0  0  0
   25.9749  -20.6250  -12.8584 C   0  0  2  0  0  0  0  0  0  0  0  0
   25.7495  -21.5966  -13.9165 N   0  0  0  0  0  0  0  0  0  0  0  0
   25.7361  -21.2085  -11.5309 C   0  0  0  0  0  0  0  0  0  0  0  0
   24.7737  -21.9661  -11.2762 O   0  0  0  0  0  0  0  0  0  0  0  0
   26.7545  -17.6956  -14.0367 C   0  0  0  0  0  0  0  0  0  0  0  0
   27.2277  -16.9260  -15.0850 C   0  0  0  0  0  0  0  0  0  0  0  0
   27.7488  -20.1416   -3.8816 C   0  0  0  0  0  0  0  0  0  0  0  0
   28.0148  -19.8113   -5.6232 S   0  0  0  0  0  0  0  0  0  0  0  0
   26.8158  -20.6407   -6.6874 C   0  0  0  0  0  0  0  0  0  0  0  0
   27.1630  -20.5491   -8.1344 C   0  0  0  0  0  0  0  0  0  0  0  0
   26.2062  -21.2748   -9.0539 C   0  0  2  0  0  0  0  0  0  0  0  0
   26.6144  -20.9386  -10.4180 N   0  0  0  0  0  0  0  0  0  0  0  0
   24.8047  -20.9276   -8.8613 C   0  0  0  0  0  0  0  0  0  0  0  0
   24.2983  -19.9476   -9.4551 O   0  0  0  0  0  0  0  0  0  0  0  0
   23.9980  -21.6686   -8.0208 O   0  0  0  0  0  0  0  0  0  0  0  0
  2  1  1  6
  3  2  1  0
  3  4  1  0
  4  8  1  0
  4  5  2  0
  5  6  1  0
  7  6  1  0
  8  7  2  0
  9 18  1  0
  9  2  1  0
 10  9  2  0
 11 12  1  0
 12 13  2  0
 13 14  1  0
 15 16  1  0
 15 14  2  0
 17 16  1  6
 17 18  1  0
 19 17  1  0
 20 19  2  0
 21 15  1  0
 22 21  2  0
 22 12  1  0
 23 24  1  0
 24 25  1  0
 27 26  1  1
 26 25  1  0
 27 28  1  0
 28 19  1  0
 29 31  1  0
 29 27  1  0
 30 29  2  0
M  END
$$$$
