TYA.pdb
     RDKit          3D

 25 25  0  0  1  0  0  0  0  0999 V2000
    8.5757  -16.9468   18.8582 C   0  0  0  0  0  0  0  0  0  0  0  0
    8.8716  -15.6215   18.2138 C   0  0  1  0  0  0  0  0  0  0  0  0
    8.5405  -15.7288   16.8373 O   0  0  0  0  0  0  0  0  0  0  0  0
    8.0081  -14.5201   18.7687 C   0  0  2  0  0  0  0  0  0  0  0  0
    8.1960  -13.3404   17.8873 N   0  0  0  0  0  0  0  0  0  0  0  0
    8.2533  -14.1550   20.1605 C   0  0  0  0  0  0  0  0  0  0  0  0
    9.2293  -13.3519   20.3887 O   0  0  0  0  0  0  0  0  0  0  0  0
    7.1519  -12.1064   28.7355 O   0  0  0  0  0  0  0  0  0  0  0  0
    7.0164  -12.5895   27.4402 C   0  0  0  0  0  0  0  0  0  0  0  0
    7.2341  -13.9173   27.1135 C   0  0  0  0  0  0  0  0  0  0  0  0
    7.0956  -14.3685   25.8382 C   0  0  0  0  0  0  0  0  0  0  0  0
    6.7243  -13.4678   24.8343 C   0  0  0  0  0  0  0  0  0  0  0  0
    6.6146  -13.9556   23.4478 C   0  0  0  0  0  0  0  0  0  0  0  0
    7.8683  -14.1056   22.6752 C   0  0  2  0  0  0  0  0  0  0  0  0
    7.5412  -14.5793   21.2980 N   0  0  0  0  0  0  0  0  0  0  0  0
    8.9333  -14.9391   23.2324 C   0  0  0  0  0  0  0  0  0  0  0  0
    9.5359  -14.5622   24.3117 O   0  0  0  0  0  0  0  0  0  0  0  0
    6.5065  -12.1479   25.1510 C   0  0  0  0  0  0  0  0  0  0  0  0
    6.6492  -11.7051   26.4400 C   0  0  0  0  0  0  0  0  0  0  0  0
   10.2702  -18.4092   23.1176 C   0  0  0  0  0  0  0  0  0  0  0  0
   10.4553  -16.9103   23.3736 C   0  0  2  0  0  0  0  0  0  0  0  0
    9.4107  -16.1711   22.7212 N   0  0  0  0  0  0  0  0  0  0  0  0
   11.7935  -16.5674   22.8686 C   0  0  0  0  0  0  0  0  0  0  0  0
   11.9370  -15.7383   21.9055 O   0  0  0  0  0  0  0  0  0  0  0  0
   12.9138  -17.1272   23.4179 O   0  0  0  0  0  0  0  0  0  0  0  0
  2  4  1  0
  2  1  1  1
  3  2  1  0
  4  6  1  0
  4  5  1  6
  6  7  2  0
  8  9  1  0
  9 19  2  0
 10 11  2  0
 10  9  1  0
 11 12  1  0
 12 13  1  0
 12 18  2  0
 14 13  1  1
 14 16  1  0
 15  6  1  0
 15 14  1  0
 16 17  2  0
 19 18  1  0
 21 20  1  6
 21 23  1  0
 22 21  1  0
 22 16  1  0
 23 25  1  0
 24 23  2  0
M  END
$$$$
