TYA.pdb
     RDKit          3D

 25 25  0  0  1  0  0  0  0  0999 V2000
    7.0835  -16.2764   19.4688 C   0  0  0  0  0  0  0  0  0  0  0  0
    7.6392  -14.9710   18.9726 C   0  0  1  0  0  0  0  0  0  0  0  0
    6.9205  -14.6149   17.8010 O   0  0  0  0  0  0  0  0  0  0  0  0
    7.4170  -13.8537   19.9571 C   0  0  2  0  0  0  0  0  0  0  0  0
    7.7531  -12.5891   19.2560 N   0  0  0  0  0  0  0  0  0  0  0  0
    8.1589  -13.9490   21.2105 C   0  0  0  0  0  0  0  0  0  0  0  0
    9.4283  -13.7615   21.1517 O   0  0  0  0  0  0  0  0  0  0  0  0
   10.1446  -14.8739   29.9343 O   0  0  0  0  0  0  0  0  0  0  0  0
    9.5671  -14.6515   28.6908 C   0  0  0  0  0  0  0  0  0  0  0  0
    9.5425  -13.4027   28.0930 C   0  0  0  0  0  0  0  0  0  0  0  0
    8.9715  -13.2079   26.8744 C   0  0  0  0  0  0  0  0  0  0  0  0
    8.3957  -14.2966   26.2109 C   0  0  0  0  0  0  0  0  0  0  0  0
    7.7437  -14.0704   24.9086 C   0  0  0  0  0  0  0  0  0  0  0  0
    8.5230  -14.3865   23.6904 C   0  0  2  0  0  0  0  0  0  0  0  0
    7.6474  -14.2232   22.4927 N   0  0  0  0  0  0  0  0  0  0  0  0
    9.2057  -15.6780   23.6172 C   0  0  0  0  0  0  0  0  0  0  0  0
    8.5161  -16.7499   23.4037 O   0  0  0  0  0  0  0  0  0  0  0  0
    8.4161  -15.5395   26.7981 C   0  0  0  0  0  0  0  0  0  0  0  0
    8.9947  -15.7233   28.0267 C   0  0  0  0  0  0  0  0  0  0  0  0
   12.4186  -17.1567   22.7259 C   0  0  0  0  0  0  0  0  0  0  0  0
   11.1572  -17.2316   23.5916 C   0  0  2  0  0  0  0  0  0  0  0  0
   10.5954  -15.9192   23.7503 N   0  0  0  0  0  0  0  0  0  0  0  0
   11.5688  -17.8310   24.8702 C   0  0  0  0  0  0  0  0  0  0  0  0
   11.3889  -17.2085   25.9728 O   0  0  0  0  0  0  0  0  0  0  0  0
   12.1527  -19.0670   24.9082 O   0  0  0  0  0  0  0  0  0  0  0  0
  2  4  1  0
  2  1  1  1
  3  2  1  0
  4  6  1  0
  4  5  1  6
  6  7  2  0
  8  9  1  0
  9 19  2  0
 10 11  2  0
 10  9  1  0
 11 12  1  0
 12 13  1  0
 12 18  2  0
 14 13  1  1
 14 16  1  0
 15  6  1  0
 15 14  1  0
 16 17  2  0
 19 18  1  0
 21 20  1  6
 21 23  1  0
 22 21  1  0
 22 16  1  0
 23 25  1  0
 24 23  2  0
M  END
$$$$
