TYA.pdb
     RDKit          3D

 25 25  0  0  1  0  0  0  0  0999 V2000
    8.3600  -19.4050   20.3517 C   0  0  0  0  0  0  0  0  0  0  0  0
    9.0938  -18.6440   19.2834 C   0  0  1  0  0  0  0  0  0  0  0  0
    8.7856  -19.2481   18.0359 O   0  0  0  0  0  0  0  0  0  0  0  0
    8.6250  -17.2166   19.1858 C   0  0  2  0  0  0  0  0  0  0  0  0
    9.3310  -16.6098   18.0294 N   0  0  0  0  0  0  0  0  0  0  0  0
    8.8145  -16.3983   20.3795 C   0  0  0  0  0  0  0  0  0  0  0  0
   10.0207  -16.0703   20.6753 O   0  0  0  0  0  0  0  0  0  0  0  0
    7.2080  -12.0246   28.0275 O   0  0  0  0  0  0  0  0  0  0  0  0
    7.1359  -12.6106   26.7701 C   0  0  0  0  0  0  0  0  0  0  0  0
    6.4783  -13.8076   26.5424 C   0  0  0  0  0  0  0  0  0  0  0  0
    6.4202  -14.3633   25.3027 C   0  0  0  0  0  0  0  0  0  0  0  0
    7.0405  -13.7081   24.2336 C   0  0  0  0  0  0  0  0  0  0  0  0
    7.0074  -14.3359   22.9005 C   0  0  0  0  0  0  0  0  0  0  0  0
    8.1527  -15.1931   22.5205 C   0  0  2  0  0  0  0  0  0  0  0  0
    7.8249  -15.9167   21.2568 N   0  0  0  0  0  0  0  0  0  0  0  0
    8.6642  -16.1469   23.5044 C   0  0  0  0  0  0  0  0  0  0  0  0
    7.9827  -17.2124   23.7702 O   0  0  0  0  0  0  0  0  0  0  0  0
    7.6954  -12.5192   24.4519 C   0  0  0  0  0  0  0  0  0  0  0  0
    7.7469  -11.9691   25.7059 C   0  0  0  0  0  0  0  0  0  0  0  0
   11.8100  -17.3168   24.9850 C   0  0  0  0  0  0  0  0  0  0  0  0
   10.3016  -17.0935   25.1309 C   0  0  2  0  0  0  0  0  0  0  0  0
    9.8733  -16.0540   24.2369 N   0  0  0  0  0  0  0  0  0  0  0  0
   10.0685  -16.7582   26.5439 C   0  0  0  0  0  0  0  0  0  0  0  0
    9.6440  -15.5997   26.8803 O   0  0  0  0  0  0  0  0  0  0  0  0
   10.3004  -17.6778   27.5291 O   0  0  0  0  0  0  0  0  0  0  0  0
  2  4  1  0
  2  1  1  1
  3  2  1  0
  4  6  1  0
  4  5  1  6
  6  7  2  0
  8  9  1  0
  9 19  2  0
 10 11  2  0
 10  9  1  0
 11 12  1  0
 12 13  1  0
 12 18  2  0
 14 13  1  1
 14 16  1  0
 15  6  1  0
 15 14  1  0
 16 17  2  0
 19 18  1  0
 21 20  1  1
 21 23  1  0
 22 21  1  0
 22 16  1  0
 23 25  1  0
 24 23  2  0
M  END
$$$$
