TYA.pdb
     RDKit          3D

 25 25  0  0  1  0  0  0  0  0999 V2000
   11.4701  -19.3033   22.8096 C   0  0  0  0  0  0  0  0  0  0  0  0
   11.9820  -18.4809   21.6605 C   0  0  1  0  0  0  0  0  0  0  0  0
   12.1989  -19.3588   20.5658 O   0  0  0  0  0  0  0  0  0  0  0  0
   10.9672  -17.4712   21.1942 C   0  0  2  0  0  0  0  0  0  0  0  0
   11.5299  -16.8232   19.9830 N   0  0  0  0  0  0  0  0  0  0  0  0
   10.5748  -16.4608   22.1717 C   0  0  0  0  0  0  0  0  0  0  0  0
   11.4283  -15.5355   22.4276 O   0  0  0  0  0  0  0  0  0  0  0  0
    5.7878  -11.1173   27.4781 O   0  0  0  0  0  0  0  0  0  0  0  0
    6.2282  -12.0642   26.5622 C   0  0  0  0  0  0  0  0  0  0  0  0
    5.9217  -13.4097   26.6756 C   0  0  0  0  0  0  0  0  0  0  0  0
    6.3638  -14.3196   25.7669 C   0  0  0  0  0  0  0  0  0  0  0  0
    7.1468  -13.8834   24.6929 C   0  0  0  0  0  0  0  0  0  0  0  0
    7.6554  -14.8804   23.7339 C   0  0  0  0  0  0  0  0  0  0  0  0
    9.0740  -15.2847   23.8566 C   0  0  2  0  0  0  0  0  0  0  0  0
    9.3596  -16.3735   22.8764 N   0  0  0  0  0  0  0  0  0  0  0  0
    9.5740  -15.6773   25.1739 C   0  0  0  0  0  0  0  0  0  0  0  0
    9.3888  -16.8871   25.5889 O   0  0  0  0  0  0  0  0  0  0  0  0
    7.4554  -12.5490   24.5736 C   0  0  0  0  0  0  0  0  0  0  0  0
    7.0039  -11.6415   25.4958 C   0  0  0  0  0  0  0  0  0  0  0  0
   10.6470  -14.2491   28.4198 C   0  0  0  0  0  0  0  0  0  0  0  0
   10.7084  -15.3663   27.3736 C   0  0  2  0  0  0  0  0  0  0  0  0
   10.2758  -14.8654   26.0987 N   0  0  0  0  0  0  0  0  0  0  0  0
    9.8523  -16.4511   27.8771 C   0  0  0  0  0  0  0  0  0  0  0  0
    8.5840  -16.4114   27.7181 O   0  0  0  0  0  0  0  0  0  0  0  0
   10.3935  -17.5262   28.5261 O   0  0  0  0  0  0  0  0  0  0  0  0
  2  4  1  0
  2  1  1  1
  3  2  1  0
  4  6  1  0
  4  5  1  6
  6  7  2  0
  8  9  1  0
  9 19  2  0
 10 11  2  0
 10  9  1  0
 11 12  1  0
 12 13  1  0
 12 18  2  0
 14 13  1  1
 14 16  1  0
 15  6  1  0
 15 14  1  0
 16 17  2  0
 19 18  1  0
 21 20  1  1
 21 23  1  0
 22 21  1  0
 22 16  1  0
 23 25  1  0
 24 23  2  0
M  END
$$$$
