TYA.pdb
     RDKit          3D

 25 25  0  0  1  0  0  0  0  0999 V2000
    7.3457  -16.5799   17.0730 C   0  0  0  0  0  0  0  0  0  0  0  0
    7.8365  -16.3996   18.4821 C   0  0  1  0  0  0  0  0  0  0  0  0
    9.1984  -16.7998   18.5180 O   0  0  0  0  0  0  0  0  0  0  0  0
    7.8120  -14.9553   18.9066 C   0  0  2  0  0  0  0  0  0  0  0  0
    8.7304  -14.2241   17.9981 N   0  0  0  0  0  0  0  0  0  0  0  0
    8.1630  -14.6920   20.2987 C   0  0  0  0  0  0  0  0  0  0  0  0
    9.4110  -14.5507   20.5681 O   0  0  0  0  0  0  0  0  0  0  0  0
    7.5401  -12.6455   29.0316 O   0  0  0  0  0  0  0  0  0  0  0  0
    7.3448  -12.8812   27.6767 C   0  0  0  0  0  0  0  0  0  0  0  0
    7.5701  -11.9140   26.7119 C   0  0  0  0  0  0  0  0  0  0  0  0
    7.3723  -12.1669   25.3905 C   0  0  0  0  0  0  0  0  0  0  0  0
    6.9304  -13.4353   24.9992 C   0  0  0  0  0  0  0  0  0  0  0  0
    6.6803  -13.6901   23.5692 C   0  0  0  0  0  0  0  0  0  0  0  0
    7.7739  -14.3041   22.7832 C   0  0  2  0  0  0  0  0  0  0  0  0
    7.2905  -14.5707   21.3964 N   0  0  0  0  0  0  0  0  0  0  0  0
    8.4183  -15.5070   23.3096 C   0  0  0  0  0  0  0  0  0  0  0  0
    7.8151  -16.6457   23.2111 O   0  0  0  0  0  0  0  0  0  0  0  0
    6.7045  -14.4007   25.9514 C   0  0  0  0  0  0  0  0  0  0  0  0
    6.9076  -14.1338   27.2801 C   0  0  0  0  0  0  0  0  0  0  0  0
   11.6772  -16.9827   23.9451 C   0  0  0  0  0  0  0  0  0  0  0  0
   10.2210  -16.8432   24.3993 C   0  0  2  0  0  0  0  0  0  0  0  0
    9.6842  -15.5926   23.9401 N   0  0  0  0  0  0  0  0  0  0  0  0
   10.2339  -16.9507   25.8661 C   0  0  0  0  0  0  0  0  0  0  0  0
    9.8211  -15.9856   26.5968 O   0  0  0  0  0  0  0  0  0  0  0  0
   10.6872  -18.0849   26.4811 O   0  0  0  0  0  0  0  0  0  0  0  0
  2  4  1  0
  2  1  1  6
  3  2  1  0
  4  6  1  0
  4  5  1  6
  6  7  2  0
  8  9  1  0
  9 19  2  0
 10 11  2  0
 10  9  1  0
 11 12  1  0
 12 13  1  0
 12 18  2  0
 14 13  1  1
 14 16  1  0
 15  6  1  0
 15 14  1  0
 16 17  2  0
 19 18  1  0
 21 20  1  1
 21 23  1  0
 22 21  1  0
 22 16  1  0
 23 25  1  0
 24 23  2  0
M  END
$$$$
