TYA.pdb
     RDKit          3D

 25 25  0  0  1  0  0  0  0  0999 V2000
    8.0121  -16.4969   18.3919 C   0  0  0  0  0  0  0  0  0  0  0  0
    8.4047  -15.1519   17.8478 C   0  0  1  0  0  0  0  0  0  0  0  0
    7.9435  -15.0788   16.5069 O   0  0  0  0  0  0  0  0  0  0  0  0
    7.7295  -14.0268   18.5860 C   0  0  2  0  0  0  0  0  0  0  0  0
    8.0333  -12.7795   17.8405 N   0  0  0  0  0  0  0  0  0  0  0  0
    8.0918  -13.8761   19.9918 C   0  0  0  0  0  0  0  0  0  0  0  0
    9.2608  -13.4077   20.2451 O   0  0  0  0  0  0  0  0  0  0  0  0
    7.9094  -13.7531   28.9244 O   0  0  0  0  0  0  0  0  0  0  0  0
    7.6089  -13.7468   27.5683 C   0  0  0  0  0  0  0  0  0  0  0  0
    7.0786  -14.8479   26.9173 C   0  0  0  0  0  0  0  0  0  0  0  0
    6.7921  -14.8194   25.5884 C   0  0  0  0  0  0  0  0  0  0  0  0
    7.0399  -13.6487   24.8638 C   0  0  0  0  0  0  0  0  0  0  0  0
    6.7639  -13.6379   23.4160 C   0  0  0  0  0  0  0  0  0  0  0  0
    7.8366  -14.1113   22.5125 C   0  0  2  0  0  0  0  0  0  0  0  0
    7.3068  -14.1834   21.1189 N   0  0  0  0  0  0  0  0  0  0  0  0
    8.5157  -15.3656   22.8365 C   0  0  0  0  0  0  0  0  0  0  0  0
    7.9437  -16.4893   22.5531 O   0  0  0  0  0  0  0  0  0  0  0  0
    7.5663  -12.5514   25.5032 C   0  0  0  0  0  0  0  0  0  0  0  0
    7.8509  -12.5924   26.8430 C   0  0  0  0  0  0  0  0  0  0  0  0
   11.7304  -16.9482   23.1699 C   0  0  0  0  0  0  0  0  0  0  0  0
   10.3254  -16.8100   23.7644 C   0  0  2  0  0  0  0  0  0  0  0  0
    9.7856  -15.5176   23.4459 N   0  0  0  0  0  0  0  0  0  0  0  0
   10.4669  -17.0245   25.2126 C   0  0  0  0  0  0  0  0  0  0  0  0
   10.0779  -16.1366   26.0469 O   0  0  0  0  0  0  0  0  0  0  0  0
   11.0172  -18.1780   25.6991 O   0  0  0  0  0  0  0  0  0  0  0  0
  2  4  1  0
  2  1  1  1
  3  2  1  0
  4  6  1  0
  4  5  1  6
  6  7  2  0
  8  9  1  0
  9 19  2  0
 10 11  2  0
 10  9  1  0
 11 12  1  0
 12 13  1  0
 12 18  2  0
 14 13  1  1
 14 16  1  0
 15  6  1  0
 15 14  1  0
 16 17  2  0
 19 18  1  0
 21 20  1  6
 21 23  1  0
 22 21  1  0
 22 16  1  0
 23 25  1  0
 24 23  2  0
M  END
$$$$
