TYA.pdb
     RDKit          3D

 25 25  0  0  1  0  0  0  0  0999 V2000
    6.1634  -17.1843   18.9365 C   0  0  0  0  0  0  0  0  0  0  0  0
    7.0411  -17.0134   20.1446 C   0  0  1  0  0  0  0  0  0  0  0  0
    8.2590  -17.6984   19.8922 O   0  0  0  0  0  0  0  0  0  0  0  0
    7.4100  -15.5717   20.3733 C   0  0  2  0  0  0  0  0  0  0  0  0
    8.1523  -15.1212   19.1692 N   0  0  0  0  0  0  0  0  0  0  0  0
    8.1854  -15.2935   21.5782 C   0  0  0  0  0  0  0  0  0  0  0  0
    9.4525  -15.1408   21.4332 O   0  0  0  0  0  0  0  0  0  0  0  0
   10.5851  -14.2456   30.1353 O   0  0  0  0  0  0  0  0  0  0  0  0
    9.8924  -14.3401   28.9350 C   0  0  0  0  0  0  0  0  0  0  0  0
    9.2390  -15.4955   28.5407 C   0  0  0  0  0  0  0  0  0  0  0  0
    8.5667  -15.5657   27.3608 C   0  0  0  0  0  0  0  0  0  0  0  0
    8.5359  -14.4426   26.5273 C   0  0  0  0  0  0  0  0  0  0  0  0
    7.8388  -14.5384   25.2322 C   0  0  0  0  0  0  0  0  0  0  0  0
    8.6186  -15.0226   24.0708 C   0  0  2  0  0  0  0  0  0  0  0  0
    7.7087  -15.1687   22.8966 N   0  0  0  0  0  0  0  0  0  0  0  0
    9.4092  -16.2436   24.2241 C   0  0  0  0  0  0  0  0  0  0  0  0
    8.8111  -17.3889   24.2479 O   0  0  0  0  0  0  0  0  0  0  0  0
    9.1824  -13.2919   26.9120 C   0  0  0  0  0  0  0  0  0  0  0  0
    9.8566  -13.2334   28.1036 C   0  0  0  0  0  0  0  0  0  0  0  0
   12.8262  -17.5175   23.6560 C   0  0  0  0  0  0  0  0  0  0  0  0
   11.4899  -17.6083   24.3992 C   0  0  2  0  0  0  0  0  0  0  0  0
   10.8170  -16.3402   24.3503 N   0  0  0  0  0  0  0  0  0  0  0  0
   11.8087  -18.0289   25.7721 C   0  0  0  0  0  0  0  0  0  0  0  0
   11.4930  -17.2956   26.7712 O   0  0  0  0  0  0  0  0  0  0  0  0
   12.4494  -19.2132   26.0106 O   0  0  0  0  0  0  0  0  0  0  0  0
  2  4  1  0
  2  1  1  6
  3  2  1  0
  4  6  1  0
  4  5  1  6
  6  7  2  0
  8  9  1  0
  9 19  2  0
 10 11  2  0
 10  9  1  0
 11 12  1  0
 12 13  1  0
 12 18  2  0
 14 13  1  1
 14 16  1  0
 15  6  1  0
 15 14  1  0
 16 17  2  0
 19 18  1  0
 21 20  1  6
 21 23  1  0
 22 21  1  0
 22 16  1  0
 23 25  1  0
 24 23  2  0
M  END
$$$$
