TYA.pdb
     RDKit          3D

 25 25  0  0  1  0  0  0  0  0999 V2000
    8.1627  -19.3898   20.4484 C   0  0  0  0  0  0  0  0  0  0  0  0
    9.0244  -18.6873   19.4370 C   0  0  1  0  0  0  0  0  0  0  0  0
    8.7203  -19.2307   18.1609 O   0  0  0  0  0  0  0  0  0  0  0  0
    8.7100  -17.2173   19.3530 C   0  0  2  0  0  0  0  0  0  0  0  0
    9.5595  -16.6565   18.2725 N   0  0  0  0  0  0  0  0  0  0  0  0
    8.8891  -16.4538   20.5841 C   0  0  0  0  0  0  0  0  0  0  0  0
   10.0967  -16.2263   20.9580 O   0  0  0  0  0  0  0  0  0  0  0  0
    7.0686  -11.8281   28.0893 O   0  0  0  0  0  0  0  0  0  0  0  0
    7.0856  -12.4377   26.8413 C   0  0  0  0  0  0  0  0  0  0  0  0
    7.7463  -11.8914   25.7540 C   0  0  0  0  0  0  0  0  0  0  0  0
    7.7497  -12.5057   24.5409 C   0  0  0  0  0  0  0  0  0  0  0  0
    7.0687  -13.7184   24.3904 C   0  0  0  0  0  0  0  0  0  0  0  0
    7.0435  -14.3586   23.0630 C   0  0  0  0  0  0  0  0  0  0  0  0
    8.1978  -15.2077   22.6920 C   0  0  2  0  0  0  0  0  0  0  0  0
    7.8879  -15.9279   21.4219 N   0  0  0  0  0  0  0  0  0  0  0  0
    8.7041  -16.1625   23.6776 C   0  0  0  0  0  0  0  0  0  0  0  0
    8.0436  -17.2495   23.9066 O   0  0  0  0  0  0  0  0  0  0  0  0
    6.4103  -14.2669   25.4654 C   0  0  0  0  0  0  0  0  0  0  0  0
    6.4142  -13.6383   26.6830 C   0  0  0  0  0  0  0  0  0  0  0  0
   11.8263  -17.3685   25.0834 C   0  0  0  0  0  0  0  0  0  0  0  0
   10.3349  -17.1052   25.3129 C   0  0  2  0  0  0  0  0  0  0  0  0
    9.8871  -16.0488   24.4488 N   0  0  0  0  0  0  0  0  0  0  0  0
   10.1887  -16.7728   26.7382 C   0  0  0  0  0  0  0  0  0  0  0  0
    9.6989  -15.6485   27.1012 O   0  0  0  0  0  0  0  0  0  0  0  0
   10.5731  -17.6584   27.7067 O   0  0  0  0  0  0  0  0  0  0  0  0
  2  4  1  0
  2  1  1  1
  3  2  1  0
  4  6  1  0
  4  5  1  6
  6  7  2  0
  8  9  1  0
  9 19  2  0
 10 11  2  0
 10  9  1  0
 11 12  1  0
 12 13  1  0
 12 18  2  0
 14 13  1  1
 14 16  1  0
 15  6  1  0
 15 14  1  0
 16 17  2  0
 19 18  1  0
 21 20  1  1
 21 23  1  0
 22 21  1  0
 22 16  1  0
 23 25  1  0
 24 23  2  0
M  END
$$$$
