WWQ.pdb
     RDKit          3D

 38 41  0  0  1  0  0  0  0  0999 V2000
   24.2482  -22.6253  -19.0833 N   0  0  0  0  0  0  0  0  0  0  0  0
   23.1226  -21.7527  -19.1659 C   0  0  1  0  0  0  0  0  0  0  0  0
   22.1850  -22.0544  -20.2885 C   0  0  0  0  0  0  0  0  0  0  0  0
   22.8726  -21.8584  -21.5808 C   0  0  0  0  0  0  0  0  0  0  0  0
   23.6509  -22.8020  -22.2570 C   0  0  0  0  0  0  0  0  0  0  0  0
   24.0796  -22.2844  -23.4108 N   0  0  0  0  0  0  0  0  0  0  0  0
   23.6219  -21.0305  -23.5387 C   0  0  0  0  0  0  0  0  0  0  0  0
   23.7666  -20.0554  -24.5187 C   0  0  0  0  0  0  0  0  0  0  0  0
   23.1550  -18.8282  -24.3387 C   0  0  0  0  0  0  0  0  0  0  0  0
   22.4086  -18.5448  -23.2169 C   0  0  0  0  0  0  0  0  0  0  0  0
   22.2704  -19.5150  -22.2513 C   0  0  0  0  0  0  0  0  0  0  0  0
   22.8657  -20.7503  -22.3999 C   0  0  0  0  0  0  0  0  0  0  0  0
   22.4405  -21.6309  -17.8419 C   0  0  0  0  0  0  0  0  0  0  0  0
   22.2633  -22.6517  -17.0988 O   0  0  0  0  0  0  0  0  0  0  0  0
   21.9996  -20.3536  -17.4377 N   0  0  0  0  0  0  0  0  0  0  0  0
   21.3878  -20.1454  -16.1035 C   0  0  1  0  0  0  0  0  0  0  0  0
   21.8778  -18.8519  -15.5917 C   0  0  0  0  0  0  0  0  0  0  0  0
   21.2674  -18.4740  -14.3086 C   0  0  0  0  0  0  0  0  0  0  0  0
   21.4534  -19.1465  -13.1195 C   0  0  0  0  0  0  0  0  0  0  0  0
   20.7211  -18.5266  -12.1773 N   0  0  0  0  0  0  0  0  0  0  0  0
   20.0728  -17.4785  -12.7287 C   0  0  0  0  0  0  0  0  0  0  0  0
   19.2025  -16.5312  -12.1804 C   0  0  0  0  0  0  0  0  0  0  0  0
   18.6722  -15.5387  -12.9959 C   0  0  0  0  0  0  0  0  0  0  0  0
   19.0122  -15.5055  -14.3267 C   0  0  0  0  0  0  0  0  0  0  0  0
   19.8667  -16.4299  -14.8800 C   0  0  0  0  0  0  0  0  0  0  0  0
   20.3955  -17.4233  -14.0560 C   0  0  0  0  0  0  0  0  0  0  0  0
   19.9573  -20.3567  -16.2313 C   0  0  0  0  0  0  0  0  0  0  0  0
   19.3824  -19.8876  -17.2817 O   0  0  0  0  0  0  0  0  0  0  0  0
   16.6345  -25.1565  -14.5774 N   0  0  0  0  0  0  0  0  0  0  0  0
   17.6204  -24.5000  -13.7975 C   0  0  0  0  0  0  0  0  0  0  0  0
   18.2678  -25.0792  -12.8591 O   0  0  0  0  0  0  0  0  0  0  0  0
   17.9758  -23.0809  -14.0248 C   0  0  0  0  0  0  0  0  0  0  0  0
   17.2677  -22.5248  -15.1940 C   0  0  0  0  0  0  0  0  0  0  0  0
   17.6544  -21.1371  -15.5801 C   0  0  2  0  0  0  0  0  0  0  0  0
   19.1289  -21.0249  -15.3281 N   0  0  0  0  0  0  0  0  0  0  0  0
   17.0094  -20.0272  -14.8985 C   0  0  0  0  0  0  0  0  0  0  0  0
   16.4294  -20.1630  -13.7814 O   0  0  0  0  0  0  0  0  0  0  0  0
   16.9740  -18.7107  -15.3961 O   0  0  0  0  0  0  0  0  0  0  0  0
  2  1  1  1
  2 13  1  0
  2  3  1  0
  4  5  2  0
  4  3  1  0
  6  5  1  0
  7 12  2  0
  7  6  1  0
  8  7  1  0
  9 10  1  0
  9  8  2  0
 10 11  2  0
 11 12  1  0
 12  4  1  0
 13 15  1  0
 14 13  2  0
 15 16  1  0
 16 17  1  6
 16 27  1  0
 18 17  1  0
 19 18  2  0
 20 21  1  0
 20 19  1  0
 21 26  2  0
 22 23  2  0
 22 21  1  0
 23 24  1  0
 24 25  2  0
 26 25  1  0
 26 18  1  0
 27 28  2  0
 27 35  1  0
 29 30  1  0
 30 32  1  0
 31 30  2  0
 32 33  1  0
 34 33  1  1
 34 36  1  0
 35 34  1  0
 36 37  2  0
 36 38  1  0
M  END
$$$$
