WWQ.pdb
     RDKit          3D

 38 41  0  0  1  0  0  0  0  0999 V2000
   27.6307  -21.3083  -16.3732 N   0  0  0  0  0  0  0  0  0  0  0  0
   27.3352  -20.2992  -15.4091 C   0  0  1  0  0  0  0  0  0  0  0  0
   26.3819  -19.2508  -15.8808 C   0  0  0  0  0  0  0  0  0  0  0  0
   26.9449  -18.5546  -17.0553 C   0  0  0  0  0  0  0  0  0  0  0  0
   26.2643  -18.2321  -18.2327 C   0  0  0  0  0  0  0  0  0  0  0  0
   27.0823  -17.5721  -19.0561 N   0  0  0  0  0  0  0  0  0  0  0  0
   28.2862  -17.4375  -18.4812 C   0  0  0  0  0  0  0  0  0  0  0  0
   29.4798  -16.8527  -18.8881 C   0  0  0  0  0  0  0  0  0  0  0  0
   30.5697  -16.8925  -18.0378 C   0  0  0  0  0  0  0  0  0  0  0  0
   30.5065  -17.4951  -16.8015 C   0  0  0  0  0  0  0  0  0  0  0  0
   29.3217  -18.0720  -16.4060 C   0  0  0  0  0  0  0  0  0  0  0  0
   28.2149  -18.0488  -17.2288 C   0  0  0  0  0  0  0  0  0  0  0  0
   26.9470  -20.9060  -14.0999 C   0  0  0  0  0  0  0  0  0  0  0  0
   26.5023  -22.0993  -14.0360 O   0  0  0  0  0  0  0  0  0  0  0  0
   27.0878  -20.1207  -12.9368 N   0  0  0  0  0  0  0  0  0  0  0  0
   26.4566  -20.5303  -11.6595 C   0  0  1  0  0  0  0  0  0  0  0  0
   27.0230  -19.6798  -10.5961 C   0  0  0  0  0  0  0  0  0  0  0  0
   26.5595  -20.0560   -9.2525 C   0  0  0  0  0  0  0  0  0  0  0  0
   25.2423  -20.2663   -8.9038 C   0  0  0  0  0  0  0  0  0  0  0  0
   25.2064  -20.5676   -7.5938 N   0  0  0  0  0  0  0  0  0  0  0  0
   26.4610  -20.5559   -7.0950 C   0  0  0  0  0  0  0  0  0  0  0  0
   26.9522  -20.8020   -5.8091 C   0  0  0  0  0  0  0  0  0  0  0  0
   28.3195  -20.7216   -5.5737 C   0  0  0  0  0  0  0  0  0  0  0  0
   29.1649  -20.4017   -6.6084 C   0  0  0  0  0  0  0  0  0  0  0  0
   28.6967  -20.1572   -7.8780 C   0  0  0  0  0  0  0  0  0  0  0  0
   27.3234  -20.2397   -8.1076 C   0  0  0  0  0  0  0  0  0  0  0  0
   25.0187  -20.5466  -11.8582 C   0  0  0  0  0  0  0  0  0  0  0  0
   24.5044  -19.5796  -12.5322 O   0  0  0  0  0  0  0  0  0  0  0  0
   21.8450  -23.8361  -14.7586 N   0  0  0  0  0  0  0  0  0  0  0  0
   20.7356  -23.5839  -13.9119 C   0  0  0  0  0  0  0  0  0  0  0  0
   19.5229  -23.7478  -14.2829 O   0  0  0  0  0  0  0  0  0  0  0  0
   20.9097  -23.1132  -12.5190 C   0  0  0  0  0  0  0  0  0  0  0  0
   22.3313  -22.8801  -12.1989 C   0  0  0  0  0  0  0  0  0  0  0  0
   22.6827  -21.4836  -11.8109 C   0  0  2  0  0  0  0  0  0  0  0  0
   24.1234  -21.5118  -11.3940 N   0  0  0  0  0  0  0  0  0  0  0  0
   21.9299  -20.8565  -10.7373 C   0  0  0  0  0  0  0  0  0  0  0  0
   21.0428  -19.9798  -10.9541 O   0  0  0  0  0  0  0  0  0  0  0  0
   22.0993  -21.1623   -9.3735 O   0  0  0  0  0  0  0  0  0  0  0  0
  2  1  1  6
  2 13  1  0
  2  3  1  0
  4  5  2  0
  4  3  1  0
  6  5  1  0
  7 12  2  0
  7  6  1  0
  8  7  1  0
  9 10  1  0
  9  8  2  0
 10 11  2  0
 11 12  1  0
 12  4  1  0
 13 15  1  0
 14 13  2  0
 15 16  1  0
 16 17  1  1
 16 27  1  0
 18 17  1  0
 19 18  2  0
 20 21  1  0
 20 19  1  0
 21 26  2  0
 22 23  2  0
 22 21  1  0
 23 24  1  0
 24 25  2  0
 26 25  1  0
 26 18  1  0
 27 28  2  0
 27 35  1  0
 29 30  1  0
 30 32  1  0
 31 30  2  0
 32 33  1  0
 34 33  1  1
 34 36  1  0
 35 34  1  0
 36 37  2  0
 36 38  1  0
M  END
$$$$
