WWQ.pdb
     RDKit          3D

 38 41  0  0  1  0  0  0  0  0999 V2000
   26.3449  -21.3041  -14.5621 N   0  0  0  0  0  0  0  0  0  0  0  0
   26.7991  -20.4527  -13.5113 C   0  0  1  0  0  0  0  0  0  0  0  0
   26.2252  -19.0743  -13.5381 C   0  0  0  0  0  0  0  0  0  0  0  0
   26.4396  -18.4688  -14.8680 C   0  0  0  0  0  0  0  0  0  0  0  0
   25.4554  -17.9328  -15.7031 C   0  0  0  0  0  0  0  0  0  0  0  0
   26.0240  -17.4412  -16.8067 N   0  0  0  0  0  0  0  0  0  0  0  0
   27.3510  -17.6248  -16.7487 C   0  0  0  0  0  0  0  0  0  0  0  0
   28.3971  -17.3169  -17.6106 C   0  0  0  0  0  0  0  0  0  0  0  0
   29.6873  -17.6575  -17.2474 C   0  0  0  0  0  0  0  0  0  0  0  0
   29.9645  -18.2932  -16.0580 C   0  0  0  0  0  0  0  0  0  0  0  0
   28.9237  -18.5950  -15.2104 C   0  0  0  0  0  0  0  0  0  0  0  0
   27.6251  -18.2679  -15.5410 C   0  0  0  0  0  0  0  0  0  0  0  0
   26.6660  -21.1234  -12.1827 C   0  0  0  0  0  0  0  0  0  0  0  0
   25.8509  -22.0893  -12.0140 O   0  0  0  0  0  0  0  0  0  0  0  0
   27.4690  -20.6577  -11.1208 N   0  0  0  0  0  0  0  0  0  0  0  0
   27.0624  -20.8642   -9.7103 C   0  0  1  0  0  0  0  0  0  0  0  0
   28.1506  -20.3487   -8.8587 C   0  0  0  0  0  0  0  0  0  0  0  0
   27.7122  -20.0452   -7.4885 C   0  0  0  0  0  0  0  0  0  0  0  0
   26.5861  -19.3188   -7.1644 C   0  0  0  0  0  0  0  0  0  0  0  0
   26.5265  -19.2280   -5.8241 N   0  0  0  0  0  0  0  0  0  0  0  0
   27.5807  -19.8745   -5.2822 C   0  0  0  0  0  0  0  0  0  0  0  0
   27.9674  -20.0704   -3.9527 C   0  0  0  0  0  0  0  0  0  0  0  0
   29.1216  -20.7935   -3.6769 C   0  0  0  0  0  0  0  0  0  0  0  0
   29.8628  -21.3035   -4.7154 C   0  0  0  0  0  0  0  0  0  0  0  0
   29.4951  -21.1193   -6.0274 C   0  0  0  0  0  0  0  0  0  0  0  0
   28.3355  -20.3928   -6.2974 C   0  0  0  0  0  0  0  0  0  0  0  0
   25.7247  -20.3243   -9.5485 C   0  0  0  0  0  0  0  0  0  0  0  0
   25.3935  -19.3323  -10.2970 O   0  0  0  0  0  0  0  0  0  0  0  0
   23.8521  -20.0617  -12.7813 N   0  0  0  0  0  0  0  0  0  0  0  0
   22.4905  -20.3189  -12.4798 C   0  0  0  0  0  0  0  0  0  0  0  0
   21.5276  -19.9643  -13.2430 O   0  0  0  0  0  0  0  0  0  0  0  0
   22.0866  -21.0312  -11.2464 C   0  0  0  0  0  0  0  0  0  0  0  0
   23.2561  -21.4007  -10.4258 C   0  0  0  0  0  0  0  0  0  0  0  0
   23.3009  -20.7991   -9.0619 C   0  0  2  0  0  0  0  0  0  0  0  0
   24.7459  -20.7729   -8.6600 N   0  0  0  0  0  0  0  0  0  0  0  0
   22.5630  -21.4547   -7.9950 C   0  0  0  0  0  0  0  0  0  0  0  0
   23.0821  -22.3455   -7.2603 O   0  0  0  0  0  0  0  0  0  0  0  0
   21.2248  -21.1636   -7.6686 O   0  0  0  0  0  0  0  0  0  0  0  0
  2  1  1  6
  2 13  1  0
  2  3  1  0
  4  5  2  0
  4  3  1  0
  6  5  1  0
  7 12  2  0
  7  6  1  0
  8  7  1  0
  9 10  1  0
  9  8  2  0
 10 11  2  0
 11 12  1  0
 12  4  1  0
 13 15  1  0
 14 13  2  0
 15 16  1  0
 16 17  1  1
 16 27  1  0
 18 17  1  0
 19 18  2  0
 20 21  1  0
 20 19  1  0
 21 26  2  0
 22 23  2  0
 22 21  1  0
 23 24  1  0
 24 25  2  0
 26 25  1  0
 26 18  1  0
 27 28  2  0
 27 35  1  0
 29 30  1  0
 30 32  1  0
 31 30  2  0
 32 33  1  0
 34 33  1  6
 34 36  1  0
 35 34  1  0
 36 37  2  0
 36 38  1  0
M  END
$$$$
