WWQ.pdb
     RDKit          3D

 38 41  0  0  1  0  0  0  0  0999 V2000
   26.8473  -21.1816  -14.9797 N   0  0  0  0  0  0  0  0  0  0  0  0
   26.0411  -20.2867  -14.2150 C   0  0  1  0  0  0  0  0  0  0  0  0
   25.0102  -19.5507  -15.0061 C   0  0  0  0  0  0  0  0  0  0  0  0
   25.6632  -18.7752  -16.0801 C   0  0  0  0  0  0  0  0  0  0  0  0
   25.6408  -19.0698  -17.4462 C   0  0  0  0  0  0  0  0  0  0  0  0
   26.3066  -18.1275  -18.1182 N   0  0  0  0  0  0  0  0  0  0  0  0
   26.7768  -17.2107  -17.2600 C   0  0  0  0  0  0  0  0  0  0  0  0
   27.5247  -16.0495  -17.4166 C   0  0  0  0  0  0  0  0  0  0  0  0
   27.8599  -15.3119  -16.2960 C   0  0  0  0  0  0  0  0  0  0  0  0
   27.4751  -15.6950  -15.0307 C   0  0  0  0  0  0  0  0  0  0  0  0
   26.7353  -16.8457  -14.8838 C   0  0  0  0  0  0  0  0  0  0  0  0
   26.3824  -17.6041  -15.9806 C   0  0  0  0  0  0  0  0  0  0  0  0
   25.4853  -20.9663  -13.0059 C   0  0  0  0  0  0  0  0  0  0  0  0
   25.1038  -22.1820  -13.0537 O   0  0  0  0  0  0  0  0  0  0  0  0
   25.3961  -20.2242  -11.8098 N   0  0  0  0  0  0  0  0  0  0  0  0
   24.8034  -20.8172  -10.5873 C   0  0  1  0  0  0  0  0  0  0  0  0
   25.4335  -20.1578   -9.4283 C   0  0  0  0  0  0  0  0  0  0  0  0
   26.8139  -20.6063   -9.1935 C   0  0  0  0  0  0  0  0  0  0  0  0
   27.5342  -21.4173  -10.0446 C   0  0  0  0  0  0  0  0  0  0  0  0
   28.7391  -21.6316   -9.4873 N   0  0  0  0  0  0  0  0  0  0  0  0
   28.8101  -20.9821   -8.3058 C   0  0  0  0  0  0  0  0  0  0  0  0
   29.8336  -20.8870   -7.3576 C   0  0  0  0  0  0  0  0  0  0  0  0
   29.6316  -20.1321   -6.2085 C   0  0  0  0  0  0  0  0  0  0  0  0
   28.4298  -19.4922   -6.0239 C   0  0  0  0  0  0  0  0  0  0  0  0
   27.4144  -19.5762   -6.9473 C   0  0  0  0  0  0  0  0  0  0  0  0
   27.6236  -20.3354   -8.0985 C   0  0  0  0  0  0  0  0  0  0  0  0
   23.3590  -20.7713  -10.7250 C   0  0  0  0  0  0  0  0  0  0  0  0
   22.8237  -19.6251  -10.9565 O   0  0  0  0  0  0  0  0  0  0  0  0
   19.5511  -24.3875  -13.6819 N   0  0  0  0  0  0  0  0  0  0  0  0
   20.2836  -23.2585  -14.1291 C   0  0  0  0  0  0  0  0  0  0  0  0
   20.5166  -23.0221  -15.3640 O   0  0  0  0  0  0  0  0  0  0  0  0
   20.8304  -22.2598  -13.1828 C   0  0  0  0  0  0  0  0  0  0  0  0
   20.5197  -22.6112  -11.7836 C   0  0  0  0  0  0  0  0  0  0  0  0
   20.9972  -21.6420  -10.7556 C   0  0  2  0  0  0  0  0  0  0  0  0
   22.4779  -21.8504  -10.6355 N   0  0  0  0  0  0  0  0  0  0  0  0
   20.4350  -21.7237   -9.4178 C   0  0  0  0  0  0  0  0  0  0  0  0
   21.0997  -22.1502   -8.4284 O   0  0  0  0  0  0  0  0  0  0  0  0
   19.1226  -21.3337   -9.0897 O   0  0  0  0  0  0  0  0  0  0  0  0
  2  1  1  6
  2 13  1  0
  2  3  1  0
  4  5  2  0
  4  3  1  0
  6  5  1  0
  7 12  2  0
  7  6  1  0
  8  7  1  0
  9 10  1  0
  9  8  2  0
 10 11  2  0
 11 12  1  0
 12  4  1  0
 13 15  1  0
 14 13  2  0
 15 16  1  0
 16 17  1  1
 16 27  1  0
 18 17  1  0
 19 18  2  0
 20 21  1  0
 20 19  1  0
 21 26  2  0
 22 23  2  0
 22 21  1  0
 23 24  1  0
 24 25  2  0
 26 25  1  0
 26 18  1  0
 27 28  2  0
 27 35  1  0
 29 30  1  0
 30 32  1  0
 31 30  2  0
 32 33  1  0
 34 33  1  6
 34 36  1  0
 35 34  1  0
 36 37  2  0
 36 38  1  0
M  END
$$$$
