WWQ.pdb
     RDKit          3D

 38 41  0  0  1  0  0  0  0  0999 V2000
   15.8930  -15.8598    4.3841 N   0  0  0  0  0  0  0  0  0  0  0  0
   17.0644  -16.2146    5.1170 C   0  0  1  0  0  0  0  0  0  0  0  0
   17.3456  -15.3434    6.2969 C   0  0  0  0  0  0  0  0  0  0  0  0
   17.9184  -14.0592    5.8453 C   0  0  0  0  0  0  0  0  0  0  0  0
   17.2631  -13.0763    5.0983 C   0  0  0  0  0  0  0  0  0  0  0  0
   18.0812  -12.0380    4.9097 N   0  0  0  0  0  0  0  0  0  0  0  0
   19.2607  -12.2820    5.4989 C   0  0  0  0  0  0  0  0  0  0  0  0
   20.4437  -11.5599    5.6052 C   0  0  0  0  0  0  0  0  0  0  0  0
   21.5073  -12.1135    6.2941 C   0  0  0  0  0  0  0  0  0  0  0  0
   21.4282  -13.3587    6.8761 C   0  0  0  0  0  0  0  0  0  0  0  0
   20.2541  -14.0675    6.7663 C   0  0  0  0  0  0  0  0  0  0  0  0
   19.1733  -13.5442    6.0875 C   0  0  0  0  0  0  0  0  0  0  0  0
   17.0714  -17.6729    5.4432 C   0  0  0  0  0  0  0  0  0  0  0  0
   16.1011  -18.2089    6.0733 O   0  0  0  0  0  0  0  0  0  0  0  0
   18.1819  -18.4393    5.0327 N   0  0  0  0  0  0  0  0  0  0  0  0
   18.2776  -19.8810    5.3646 C   0  0  1  0  0  0  0  0  0  0  0  0
   18.9434  -20.5501    4.2314 C   0  0  0  0  0  0  0  0  0  0  0  0
   18.0632  -20.7162    3.0655 C   0  0  0  0  0  0  0  0  0  0  0  0
   17.8996  -19.7840    2.0629 C   0  0  0  0  0  0  0  0  0  0  0  0
   17.0037  -20.2737    1.1879 N   0  0  0  0  0  0  0  0  0  0  0  0
   16.5898  -21.4906    1.6014 C   0  0  0  0  0  0  0  0  0  0  0  0
   15.6819  -22.4002    1.0503 C   0  0  0  0  0  0  0  0  0  0  0  0
   15.4434  -23.6053    1.7001 C   0  0  0  0  0  0  0  0  0  0  0  0
   16.1039  -23.8820    2.8727 C   0  0  0  0  0  0  0  0  0  0  0  0
   16.9995  -22.9977    3.4264 C   0  0  0  0  0  0  0  0  0  0  0  0
   17.2344  -21.7901    2.7692 C   0  0  0  0  0  0  0  0  0  0  0  0
   18.8575  -19.9955    6.6904 C   0  0  0  0  0  0  0  0  0  0  0  0
   19.9257  -19.3200    6.9284 O   0  0  0  0  0  0  0  0  0  0  0  0
   18.9596  -17.8785   12.4892 N   0  0  0  0  0  0  0  0  0  0  0  0
   18.1446  -18.5814   11.5656 C   0  0  0  0  0  0  0  0  0  0  0  0
   16.9169  -18.8604   11.7895 O   0  0  0  0  0  0  0  0  0  0  0  0
   18.6664  -19.0407   10.2585 C   0  0  0  0  0  0  0  0  0  0  0  0
   18.5699  -20.5068   10.1207 C   0  0  0  0  0  0  0  0  0  0  0  0
   19.2474  -21.0866    8.9253 C   0  0  2  0  0  0  0  0  0  0  0  0
   18.3736  -20.7663    7.7488 N   0  0  0  0  0  0  0  0  0  0  0  0
   19.5015  -22.5175    8.9036 C   0  0  0  0  0  0  0  0  0  0  0  0
   18.9401  -23.2928    8.0751 O   0  0  0  0  0  0  0  0  0  0  0  0
   20.3892  -23.1732    9.7777 O   0  0  0  0  0  0  0  0  0  0  0  0
  2  1  1  1
  2 13  1  0
  2  3  1  0
  4  5  2  0
  4  3  1  0
  6  5  1  0
  7 12  2  0
  7  6  1  0
  8  7  1  0
  9 10  1  0
  9  8  2  0
 10 11  2  0
 11 12  1  0
 12  4  1  0
 13 15  1  0
 14 13  2  0
 15 16  1  0
 16 17  1  6
 16 27  1  0
 18 17  1  0
 19 18  2  0
 20 21  1  0
 20 19  1  0
 21 26  2  0
 22 23  2  0
 22 21  1  0
 23 24  1  0
 24 25  2  0
 26 25  1  0
 26 18  1  0
 27 28  2  0
 27 35  1  0
 29 30  1  0
 30 32  1  0
 31 30  2  0
 32 33  1  0
 34 33  1  1
 34 36  1  0
 35 34  1  0
 36 37  2  0
 36 38  1  0
M  END
$$$$
