WWQ.pdb
     RDKit          3D

 38 41  0  0  1  0  0  0  0  0999 V2000
   21.5198  -19.6585  -18.4924 N   0  0  0  0  0  0  0  0  0  0  0  0
   21.8338  -21.0494  -18.5406 C   0  0  1  0  0  0  0  0  0  0  0  0
   22.9225  -21.4066  -19.4984 C   0  0  0  0  0  0  0  0  0  0  0  0
   22.5894  -20.9013  -20.8456 C   0  0  0  0  0  0  0  0  0  0  0  0
   23.1599  -19.7944  -21.4802 C   0  0  0  0  0  0  0  0  0  0  0  0
   22.6398  -19.6622  -22.7028 N   0  0  0  0  0  0  0  0  0  0  0  0
   21.7419  -20.6348  -22.9170 C   0  0  0  0  0  0  0  0  0  0  0  0
   20.9212  -20.9585  -23.9912 C   0  0  0  0  0  0  0  0  0  0  0  0
   20.0805  -22.0515  -23.8869 C   0  0  0  0  0  0  0  0  0  0  0  0
   20.0326  -22.8269  -22.7502 C   0  0  0  0  0  0  0  0  0  0  0  0
   20.8478  -22.4999  -21.6911 C   0  0  0  0  0  0  0  0  0  0  0  0
   21.6994  -21.4172  -21.7623 C   0  0  0  0  0  0  0  0  0  0  0  0
   22.0501  -21.5978  -17.1675 C   0  0  0  0  0  0  0  0  0  0  0  0
   22.4467  -22.7973  -16.9951 O   0  0  0  0  0  0  0  0  0  0  0  0
   21.8040  -20.7496  -16.0679 N   0  0  0  0  0  0  0  0  0  0  0  0
   21.9289  -21.2485  -14.6775 C   0  0  1  0  0  0  0  0  0  0  0  0
   22.5745  -20.1855  -13.8848 C   0  0  0  0  0  0  0  0  0  0  0  0
   22.8806  -20.6017  -12.5083 C   0  0  0  0  0  0  0  0  0  0  0  0
   23.9511  -21.3902  -12.1433 C   0  0  0  0  0  0  0  0  0  0  0  0
   23.8890  -21.5783  -10.8132 N   0  0  0  0  0  0  0  0  0  0  0  0
   22.8110  -20.9339  -10.3176 C   0  0  0  0  0  0  0  0  0  0  0  0
   22.3142  -20.8192   -9.0155 C   0  0  0  0  0  0  0  0  0  0  0  0
   21.1625  -20.0758   -8.7873 C   0  0  0  0  0  0  0  0  0  0  0  0
   20.5319  -19.4663   -9.8449 C   0  0  0  0  0  0  0  0  0  0  0  0
   21.0086  -19.5699  -11.1305 C   0  0  0  0  0  0  0  0  0  0  0  0
   22.1650  -20.3174  -11.3528 C   0  0  0  0  0  0  0  0  0  0  0  0
   20.6292  -21.7455  -14.2639 C   0  0  0  0  0  0  0  0  0  0  0  0
   19.5924  -21.1190  -14.6958 O   0  0  0  0  0  0  0  0  0  0  0  0
   19.3235  -26.5919  -10.4750 N   0  0  0  0  0  0  0  0  0  0  0  0
   18.0236  -26.1442  -10.8231 C   0  0  0  0  0  0  0  0  0  0  0  0
   16.9557  -26.7231  -10.4235 O   0  0  0  0  0  0  0  0  0  0  0  0
   17.8125  -24.9556  -11.6800 C   0  0  0  0  0  0  0  0  0  0  0  0
   19.0934  -24.3574  -12.1032 C   0  0  0  0  0  0  0  0  0  0  0  0
   18.9841  -23.1681  -12.9964 C   0  0  2  0  0  0  0  0  0  0  0  0
   20.3799  -22.8451  -13.4409 N   0  0  0  0  0  0  0  0  0  0  0  0
   18.4058  -21.9499  -12.4541 C   0  0  0  0  0  0  0  0  0  0  0  0
   17.4426  -21.3492  -13.0145 O   0  0  0  0  0  0  0  0  0  0  0  0
   18.8421  -21.3315  -11.2669 O   0  0  0  0  0  0  0  0  0  0  0  0
  2  1  1  1
  2 13  1  0
  2  3  1  0
  4  5  2  0
  4  3  1  0
  6  5  1  0
  7 12  2  0
  7  6  1  0
  8  7  1  0
  9 10  1  0
  9  8  2  0
 10 11  2  0
 11 12  1  0
 12  4  1  0
 13 15  1  0
 14 13  2  0
 15 16  1  0
 16 17  1  1
 16 27  1  0
 18 17  1  0
 19 18  2  0
 20 21  1  0
 20 19  1  0
 21 26  2  0
 22 23  2  0
 22 21  1  0
 23 24  1  0
 24 25  2  0
 26 25  1  0
 26 18  1  0
 27 28  2  0
 27 35  1  0
 29 30  1  0
 30 32  1  0
 31 30  2  0
 32 33  1  0
 34 33  1  1
 34 36  1  0
 35 34  1  0
 36 37  2  0
 36 38  1  0
M  END
$$$$
