WWQ.pdb
     RDKit          3D

 38 41  0  0  1  0  0  0  0  0999 V2000
   25.4398  -23.2468  -17.1604 N   0  0  0  0  0  0  0  0  0  0  0  0
   24.2492  -22.4910  -16.9450 C   0  0  1  0  0  0  0  0  0  0  0  0
   23.1666  -22.7411  -17.9429 C   0  0  0  0  0  0  0  0  0  0  0  0
   23.2533  -21.7498  -19.0342 C   0  0  0  0  0  0  0  0  0  0  0  0
   24.0610  -21.8376  -20.1715 C   0  0  0  0  0  0  0  0  0  0  0  0
   23.8474  -20.7777  -20.9550 N   0  0  0  0  0  0  0  0  0  0  0  0
   22.9291  -19.9797  -20.3912 C   0  0  0  0  0  0  0  0  0  0  0  0
   22.3529  -18.7715  -20.7663 C   0  0  0  0  0  0  0  0  0  0  0  0
   21.4149  -18.1892  -19.9336 C   0  0  0  0  0  0  0  0  0  0  0  0
   21.0366  -18.7709  -18.7445 C   0  0  0  0  0  0  0  0  0  0  0  0
   21.6116  -19.9665  -18.3800 C   0  0  0  0  0  0  0  0  0  0  0  0
   22.5492  -20.5754  -19.1878 C   0  0  0  0  0  0  0  0  0  0  0  0
   23.7876  -22.6102  -15.5288 C   0  0  0  0  0  0  0  0  0  0  0  0
   23.9558  -23.6904  -14.8726 O   0  0  0  0  0  0  0  0  0  0  0  0
   23.1615  -21.4926  -14.9387 N   0  0  0  0  0  0  0  0  0  0  0  0
   22.8055  -21.4899  -13.4996 C   0  0  1  0  0  0  0  0  0  0  0  0
   23.4069  -20.2843  -12.8997 C   0  0  0  0  0  0  0  0  0  0  0  0
   24.6556  -20.5654  -12.1761 C   0  0  0  0  0  0  0  0  0  0  0  0
   25.8444  -20.9331  -12.7697 C   0  0  0  0  0  0  0  0  0  0  0  0
   26.7487  -21.1279  -11.7938 N   0  0  0  0  0  0  0  0  0  0  0  0
   26.1734  -20.8960  -10.5946 C   0  0  0  0  0  0  0  0  0  0  0  0
   26.6807  -20.9576   -9.2929 C   0  0  0  0  0  0  0  0  0  0  0  0
   25.8483  -20.6589   -8.2209 C   0  0  0  0  0  0  0  0  0  0  0  0
   24.5413  -20.3083   -8.4587 C   0  0  0  0  0  0  0  0  0  0  0  0
   24.0283  -20.2432   -9.7328 C   0  0  0  0  0  0  0  0  0  0  0  0
   24.8691  -20.5440  -10.8042 C   0  0  0  0  0  0  0  0  0  0  0  0
   21.3713  -21.6888  -13.3950 C   0  0  0  0  0  0  0  0  0  0  0  0
   20.6447  -21.2747  -14.3720 O   0  0  0  0  0  0  0  0  0  0  0  0
   18.0366  -24.5350   -8.8501 N   0  0  0  0  0  0  0  0  0  0  0  0
   18.6243  -25.2579   -9.9192 C   0  0  0  0  0  0  0  0  0  0  0  0
   18.8121  -26.5224   -9.8868 O   0  0  0  0  0  0  0  0  0  0  0  0
   19.0606  -24.5884  -11.1655 C   0  0  0  0  0  0  0  0  0  0  0  0
   18.8087  -23.1351  -11.1174 C   0  0  0  0  0  0  0  0  0  0  0  0
   19.1900  -22.3752  -12.3427 C   0  0  2  0  0  0  0  0  0  0  0  0
   20.6876  -22.2911  -12.3374 N   0  0  0  0  0  0  0  0  0  0  0  0
   18.6775  -21.0246  -12.5032 C   0  0  0  0  0  0  0  0  0  0  0  0
   17.6340  -20.7710  -13.1736 O   0  0  0  0  0  0  0  0  0  0  0  0
   19.2717  -19.8835  -11.9313 O   0  0  0  0  0  0  0  0  0  0  0  0
  2  1  1  6
  2 13  1  0
  2  3  1  0
  4  5  2  0
  4  3  1  0
  6  5  1  0
  7 12  2  0
  7  6  1  0
  8  7  1  0
  9 10  1  0
  9  8  2  0
 10 11  2  0
 11 12  1  0
 12  4  1  0
 13 15  1  0
 14 13  2  0
 15 16  1  0
 16 17  1  6
 16 27  1  0
 18 17  1  0
 19 18  2  0
 20 21  1  0
 20 19  1  0
 21 26  2  0
 22 23  2  0
 22 21  1  0
 23 24  1  0
 24 25  2  0
 26 25  1  0
 26 18  1  0
 27 28  2  0
 27 35  1  0
 29 30  1  0
 30 32  1  0
 31 30  2  0
 32 33  1  0
 34 33  1  1
 34 36  1  0
 35 34  1  0
 36 37  2  0
 36 38  1  0
M  END
$$$$
