WWQ.pdb
     RDKit          3D

 38 41  0  0  1  0  0  0  0  0999 V2000
   26.2619  -20.3684  -17.1447 N   0  0  0  0  0  0  0  0  0  0  0  0
   26.4993  -19.4754  -16.0578 C   0  0  1  0  0  0  0  0  0  0  0  0
   25.5683  -18.3091  -15.9987 C   0  0  0  0  0  0  0  0  0  0  0  0
   25.6016  -17.5770  -17.2810 C   0  0  0  0  0  0  0  0  0  0  0  0
   24.5047  -17.2809  -18.0950 C   0  0  0  0  0  0  0  0  0  0  0  0
   24.9103  -16.5745  -19.1530 N   0  0  0  0  0  0  0  0  0  0  0  0
   26.2358  -16.3834  -19.0846 C   0  0  0  0  0  0  0  0  0  0  0  0
   27.1518  -15.7363  -19.9057 C   0  0  0  0  0  0  0  0  0  0  0  0
   28.4866  -15.7271  -19.5440 C   0  0  0  0  0  0  0  0  0  0  0  0
   28.9335  -16.3410  -18.3955 C   0  0  0  0  0  0  0  0  0  0  0  0
   28.0207  -16.9797  -17.5882 C   0  0  0  0  0  0  0  0  0  0  0  0
   26.6818  -17.0065  -17.9184 C   0  0  0  0  0  0  0  0  0  0  0  0
   26.5992  -20.2188  -14.7654 C   0  0  0  0  0  0  0  0  0  0  0  0
   25.8379  -21.2115  -14.5189 O   0  0  0  0  0  0  0  0  0  0  0  0
   27.5610  -19.7911  -13.8266 N   0  0  0  0  0  0  0  0  0  0  0  0
   27.5837  -20.3458  -12.4521 C   0  0  1  0  0  0  0  0  0  0  0  0
   28.8398  -19.9023  -11.8192 C   0  0  0  0  0  0  0  0  0  0  0  0
   29.0307  -20.4578  -10.4714 C   0  0  0  0  0  0  0  0  0  0  0  0
   29.8057  -21.5592  -10.1758 C   0  0  0  0  0  0  0  0  0  0  0  0
   29.7183  -21.7806   -8.8523 N   0  0  0  0  0  0  0  0  0  0  0  0
   28.9107  -20.8540   -8.2936 C   0  0  0  0  0  0  0  0  0  0  0  0
   28.5059  -20.6503   -6.9707 C   0  0  0  0  0  0  0  0  0  0  0  0
   27.6534  -19.5941   -6.6725 C   0  0  0  0  0  0  0  0  0  0  0  0
   27.2232  -18.7682   -7.6827 C   0  0  0  0  0  0  0  0  0  0  0  0
   27.6128  -18.9558   -8.9880 C   0  0  0  0  0  0  0  0  0  0  0  0
   28.4685  -20.0176   -9.2805 C   0  0  0  0  0  0  0  0  0  0  0  0
   26.3202  -20.0164  -11.8177 C   0  0  0  0  0  0  0  0  0  0  0  0
   25.7015  -18.9713  -12.2408 O   0  0  0  0  0  0  0  0  0  0  0  0
   22.2014  -22.0222  -13.9615 N   0  0  0  0  0  0  0  0  0  0  0  0
   21.4210  -21.5021  -12.8978 C   0  0  0  0  0  0  0  0  0  0  0  0
   20.1447  -21.4336  -12.9370 O   0  0  0  0  0  0  0  0  0  0  0  0
   22.0402  -21.0019  -11.6495 C   0  0  0  0  0  0  0  0  0  0  0  0
   23.5128  -21.0798  -11.7053 C   0  0  0  0  0  0  0  0  0  0  0  0
   24.2312  -20.5407  -10.5147 C   0  0  2  0  0  0  0  0  0  0  0  0
   25.6949  -20.7216  -10.7880 N   0  0  0  0  0  0  0  0  0  0  0  0
   23.9532  -21.1316   -9.2162 C   0  0  0  0  0  0  0  0  0  0  0  0
   24.7064  -22.0050   -8.6941 O   0  0  0  0  0  0  0  0  0  0  0  0
   22.8453  -20.7916   -8.4168 O   0  0  0  0  0  0  0  0  0  0  0  0
  2  1  1  6
  2 13  1  0
  2  3  1  0
  4  5  2  0
  4  3  1  0
  6  5  1  0
  7 12  2  0
  7  6  1  0
  8  7  1  0
  9 10  1  0
  9  8  2  0
 10 11  2  0
 11 12  1  0
 12  4  1  0
 13 15  1  0
 14 13  2  0
 15 16  1  0
 16 17  1  1
 16 27  1  0
 18 17  1  0
 19 18  2  0
 20 21  1  0
 20 19  1  0
 21 26  2  0
 22 23  2  0
 22 21  1  0
 23 24  1  0
 24 25  2  0
 26 25  1  0
 26 18  1  0
 27 28  2  0
 27 35  1  0
 29 30  1  0
 30 32  1  0
 31 30  2  0
 32 33  1  0
 34 33  1  6
 34 36  1  0
 35 34  1  0
 36 37  2  0
 36 38  1  0
M  END
$$$$
