ERI.pdb
     RDKit          3D

 29 28  0  0  1  0  0  0  0  0999 V2000
   29.0326  -20.7868  -16.0401 N   0  0  0  0  0  0  0  0  0  0  0  0
   28.4794  -19.4719  -15.9658 C   0  0  1  0  0  0  0  0  0  0  0  0
   27.9603  -19.0596  -17.3188 C   0  0  0  0  0  0  0  0  0  0  0  0
   28.8928  -19.2356  -18.4548 C   0  0  0  0  0  0  0  0  0  0  0  0
   29.2493  -20.5995  -18.8371 C   0  0  0  0  0  0  0  0  0  0  0  0
   28.3464  -21.4811  -18.9266 O   0  0  0  0  0  0  0  0  0  0  0  0
   27.3252  -19.3546  -15.0156 C   0  0  0  0  0  0  0  0  0  0  0  0
   26.5111  -18.4289  -15.2507 O   0  0  0  0  0  0  0  0  0  0  0  0
   30.5389  -20.9858  -19.1078 O   0  0  0  0  0  0  0  0  0  0  0  0
   25.1036  -24.7439  -15.6501 N   0  0  0  0  0  0  0  0  0  0  0  0
   23.8754  -24.8078  -14.9082 C   0  0  0  0  0  0  0  0  0  0  0  0
   23.5375  -25.9267  -14.3905 N   0  0  0  0  0  0  0  0  0  0  0  0
   23.0705  -23.6475  -14.7663 N   0  0  0  0  0  0  0  0  0  0  0  0
   23.6414  -22.3804  -15.1799 C   0  0  0  0  0  0  0  0  0  0  0  0
   24.8230  -21.9984  -14.3174 C   0  0  0  0  0  0  0  0  0  0  0  0
   24.7386  -20.5901  -13.8132 C   0  0  0  0  0  0  0  0  0  0  0  0
   25.9365  -20.1380  -13.0437 C   0  0  2  0  0  0  0  0  0  0  0  0
   27.1022  -20.1884  -13.9100 N   0  0  0  0  0  0  0  0  0  0  0  0
   26.1072  -21.0259  -11.8593 C   0  0  0  0  0  0  0  0  0  0  0  0
   27.0439  -21.8573  -11.8612 O   0  0  0  0  0  0  0  0  0  0  0  0
   22.6497  -26.0466  -13.9008 C   0  0  0  0  0  0  0  0  0  0  0  0
   29.2413  -19.9026   -8.6378 C   0  0  0  0  0  0  0  0  0  0  0  0
   28.1482  -20.9131   -8.9086 C   0  0  2  0  0  0  0  0  0  0  0  0
   26.8008  -20.2242   -9.0012 C   0  0  0  0  0  0  0  0  0  0  0  0
   26.5332  -19.4850   -7.7216 C   0  0  2  0  0  0  0  0  0  0  0  0
   25.7098  -21.1582   -9.4061 N   0  0  0  0  0  0  0  0  0  0  0  0
   25.2348  -20.9434  -10.7455 C   0  0  0  0  0  0  0  0  0  0  0  0
   24.5956  -20.9917   -8.4233 O   0  0  0  0  0  0  0  0  0  0  0  0
   23.6262  -20.2362   -8.6892 O   0  0  0  0  0  0  0  0  0  0  0  0
  2  1  1  6
  3  4  1  0
  3  2  1  0
  4  5  1  0
  5  9  1  0
  5  6  2  0
  7  2  1  0
  7  8  2  0
 11 10  1  0
 11 13  1  0
 12 11  2  0
 14 13  1  0
 15 16  1  0
 15 14  1  0
 17 16  1  6
 17 18  1  0
 18  7  1  0
 19 17  1  0
 20 19  2  0
 21 22  1  0
 22 23  1  0
 23 25  1  0
 23 24  1  6
 25 26  1  1
 25 27  1  0
 26 19  1  0
 27 29  1  0
 28 27  2  0
M  END
$$$$
