ERI.pdb
     RDKit          3D

 29 28  0  0  1  0  0  0  0  0999 V2000
   18.8304  -15.3050  -17.7885 N   0  0  0  0  0  0  0  0  0  0  0  0
   18.6368  -14.8156  -16.4605 C   0  0  1  0  0  0  0  0  0  0  0  0
   19.7015  -15.3725  -15.5514 C   0  0  0  0  0  0  0  0  0  0  0  0
   20.1046  -16.7742  -15.8037 C   0  0  0  0  0  0  0  0  0  0  0  0
   19.7564  -17.7738  -14.7972 C   0  0  0  0  0  0  0  0  0  0  0  0
   20.0601  -18.9869  -14.9879 O   0  0  0  0  0  0  0  0  0  0  0  0
   18.7224  -13.3227  -16.3481 C   0  0  0  0  0  0  0  0  0  0  0  0
   19.4848  -12.7523  -17.1656 O   0  0  0  0  0  0  0  0  0  0  0  0
   19.1007  -17.4621  -13.6315 O   0  0  0  0  0  0  0  0  0  0  0  0
   11.5985  -10.0025  -14.0443 N   0  0  0  0  0  0  0  0  0  0  0  0
   11.7542  -10.4725  -15.3926 C   0  0  0  0  0  0  0  0  0  0  0  0
   10.7041  -10.6327  -16.1037 N   0  0  0  0  0  0  0  0  0  0  0  0
   13.0495  -10.7479  -15.9032 N   0  0  0  0  0  0  0  0  0  0  0  0
   14.1824  -10.4783  -15.0394 C   0  0  0  0  0  0  0  0  0  0  0  0
   15.4894  -10.8185  -15.7191 C   0  0  0  0  0  0  0  0  0  0  0  0
   16.6712  -10.6554  -14.8128 C   0  0  0  0  0  0  0  0  0  0  0  0
   17.9699  -11.0905  -15.4091 C   0  0  2  0  0  0  0  0  0  0  0  0
   18.0260  -12.5427  -15.4132 N   0  0  0  0  0  0  0  0  0  0  0  0
   19.0831  -10.5111  -14.6056 C   0  0  0  0  0  0  0  0  0  0  0  0
   19.1989  -10.8510  -13.4059 O   0  0  0  0  0  0  0  0  0  0  0  0
   10.7462  -11.0295  -17.0435 C   0  0  0  0  0  0  0  0  0  0  0  0
   24.0062  -11.1965  -15.3677 C   0  0  0  0  0  0  0  0  0  0  0  0
   22.6105  -10.8659  -14.8862 C   0  0  2  0  0  0  0  0  0  0  0  0
   22.4155   -9.3639  -14.8177 C   0  0  0  0  0  0  0  0  0  0  0  0
   23.5083   -8.7599  -13.9832 C   0  0  2  0  0  0  0  0  0  0  0  0
   21.0381   -8.9871  -14.3849 N   0  0  0  0  0  0  0  0  0  0  0  0
   20.0004   -9.5922  -15.1738 C   0  0  0  0  0  0  0  0  0  0  0  0
   20.9441   -7.4965  -14.4521 O   0  0  0  0  0  0  0  0  0  0  0  0
   20.4374   -6.9402  -15.4596 O   0  0  0  0  0  0  0  0  0  0  0  0
  2  1  1  6
  3  4  1  0
  3  2  1  0
  4  5  1  0
  5  9  1  0
  5  6  2  0
  7  2  1  0
  7  8  2  0
 11 10  1  0
 11 13  1  0
 12 11  2  0
 14 13  1  0
 15 16  1  0
 15 14  1  0
 17 16  1  1
 17 18  1  0
 18  7  1  0
 19 17  1  0
 20 19  2  0
 21 22  1  0
 22 23  1  0
 23 25  1  0
 23 24  1  6
 25 26  1  1
 25 27  1  0
 26 19  1  0
 27 29  1  0
 28 27  2  0
M  END
$$$$
