ERI.pdb
     RDKit          3D

 29 28  0  0  1  0  0  0  0  0999 V2000
   27.2841  -26.1726  -17.3329 N   0  0  0  0  0  0  0  0  0  0  0  0
   26.2935  -25.1702  -17.5661 C   0  0  1  0  0  0  0  0  0  0  0  0
   24.9563  -25.6474  -17.0621 C   0  0  0  0  0  0  0  0  0  0  0  0
   24.8766  -25.9507  -15.6155 C   0  0  0  0  0  0  0  0  0  0  0  0
   23.6130  -26.4689  -15.0977 C   0  0  0  0  0  0  0  0  0  0  0  0
   23.2364  -27.6340  -15.4159 O   0  0  0  0  0  0  0  0  0  0  0  0
   26.5708  -23.8725  -16.8677 C   0  0  0  0  0  0  0  0  0  0  0  0
   27.5713  -23.2325  -17.2731 O   0  0  0  0  0  0  0  0  0  0  0  0
   22.7926  -25.7439  -14.2689 O   0  0  0  0  0  0  0  0  0  0  0  0
   24.9493  -16.6730  -17.3027 N   0  0  0  0  0  0  0  0  0  0  0  0
   25.3940  -17.4159  -18.4486 C   0  0  0  0  0  0  0  0  0  0  0  0
   26.2627  -16.8804  -19.2185 N   0  0  0  0  0  0  0  0  0  0  0  0
   24.8691  -18.7098  -18.7032 N   0  0  0  0  0  0  0  0  0  0  0  0
   23.9254  -19.2513  -17.7447 C   0  0  0  0  0  0  0  0  0  0  0  0
   24.6323  -19.8408  -16.5452 C   0  0  0  0  0  0  0  0  0  0  0  0
   25.0081  -21.2774  -16.7448 C   0  0  0  0  0  0  0  0  0  0  0  0
   25.6232  -21.9256  -15.5477 C   0  0  2  0  0  0  0  0  0  0  0  0
   25.8067  -23.3417  -15.8181 N   0  0  0  0  0  0  0  0  0  0  0  0
   24.7280  -21.7130  -14.3756 C   0  0  0  0  0  0  0  0  0  0  0  0
   23.5502  -22.1344  -14.4344 O   0  0  0  0  0  0  0  0  0  0  0  0
   26.6419  -17.3745  -20.0275 C   0  0  0  0  0  0  0  0  0  0  0  0
   27.1774  -20.3272   -9.4884 C   0  0  0  0  0  0  0  0  0  0  0  0
   26.3876  -21.1111  -10.5135 C   0  0  2  0  0  0  0  0  0  0  0  0
   25.0956  -20.3924  -10.8498 C   0  0  0  0  0  0  0  0  0  0  0  0
   24.2536  -20.2812   -9.6113 C   0  0  2  0  0  0  0  0  0  0  0  0
   24.3904  -21.0028  -12.0145 N   0  0  0  0  0  0  0  0  0  0  0  0
   25.1859  -21.0485  -13.2106 C   0  0  0  0  0  0  0  0  0  0  0  0
   23.1449  -20.2086  -12.2449 O   0  0  0  0  0  0  0  0  0  0  0  0
   22.1331  -20.3963  -11.5223 O   0  0  0  0  0  0  0  0  0  0  0  0
  2  1  1  1
  3  4  1  0
  3  2  1  0
  4  5  1  0
  5  9  1  0
  5  6  2  0
  7  2  1  0
  7  8  2  0
 11 10  1  0
 11 13  1  0
 12 11  2  0
 14 13  1  0
 15 16  1  0
 15 14  1  0
 17 16  1  6
 17 18  1  0
 18  7  1  0
 19 17  1  0
 20 19  2  0
 21 22  1  0
 22 23  1  0
 23 25  1  0
 23 24  1  6
 25 26  1  1
 25 27  1  0
 26 19  1  0
 27 29  1  0
 28 27  2  0
M  END
$$$$
