ERI.pdb
     RDKit          3D

 29 28  0  0  1  0  0  0  0  0999 V2000
   20.8747  -23.7559  -14.8638 N   0  0  0  0  0  0  0  0  0  0  0  0
   21.2338  -22.4959  -14.2946 C   0  0  1  0  0  0  0  0  0  0  0  0
   20.2380  -22.1147  -13.2301 C   0  0  0  0  0  0  0  0  0  0  0  0
   18.9381  -21.5953  -13.7112 C   0  0  0  0  0  0  0  0  0  0  0  0
   18.9494  -20.3820  -14.5244 C   0  0  0  0  0  0  0  0  0  0  0  0
   19.0263  -19.2515  -13.9617 O   0  0  0  0  0  0  0  0  0  0  0  0
   22.5807  -22.4925  -13.6352 C   0  0  0  0  0  0  0  0  0  0  0  0
   22.8813  -23.5278  -12.9930 O   0  0  0  0  0  0  0  0  0  0  0  0
   18.8767  -20.4018  -15.8955 O   0  0  0  0  0  0  0  0  0  0  0  0
   27.3538  -21.1072  -16.6743 N   0  0  0  0  0  0  0  0  0  0  0  0
   28.6329  -21.3745  -16.0783 C   0  0  0  0  0  0  0  0  0  0  0  0
   29.3807  -22.2590  -16.6191 N   0  0  0  0  0  0  0  0  0  0  0  0
   29.0374  -20.6648  -14.9176 N   0  0  0  0  0  0  0  0  0  0  0  0
   28.0712  -19.7738  -14.3054 C   0  0  0  0  0  0  0  0  0  0  0  0
   27.1398  -20.5210  -13.3781 C   0  0  0  0  0  0  0  0  0  0  0  0
   25.7692  -20.6990  -13.9564 C   0  0  0  0  0  0  0  0  0  0  0  0
   24.8197  -21.4420  -13.0745 C   0  0  2  0  0  0  0  0  0  0  0  0
   23.5015  -21.4357  -13.6865 N   0  0  0  0  0  0  0  0  0  0  0  0
   24.7953  -20.7853  -11.7372 C   0  0  0  0  0  0  0  0  0  0  0  0
   24.0649  -19.7813  -11.5736 O   0  0  0  0  0  0  0  0  0  0  0  0
   30.2873  -22.5120  -16.2233 C   0  0  0  0  0  0  0  0  0  0  0  0
   27.7580  -20.8826   -6.2498 C   0  0  0  0  0  0  0  0  0  0  0  0
   26.5413  -20.5208   -7.0734 C   0  0  2  0  0  0  0  0  0  0  0  0
   26.6233  -21.1566   -8.4473 C   0  0  0  0  0  0  0  0  0  0  0  0
   28.0387  -21.0827   -8.9439 C   0  0  2  0  0  0  0  0  0  0  0  0
   25.6144  -20.5988   -9.3946 N   0  0  0  0  0  0  0  0  0  0  0  0
   25.5780  -21.2753  -10.6621 C   0  0  0  0  0  0  0  0  0  0  0  0
   25.9362  -19.1511   -9.5837 O   0  0  0  0  0  0  0  0  0  0  0  0
   26.7340  -18.7941  -10.4878 O   0  0  0  0  0  0  0  0  0  0  0  0
  2  1  1  1
  3  4  1  0
  3  2  1  0
  4  5  1  0
  5  9  1  0
  5  6  2  0
  7  2  1  0
  7  8  2  0
 11 10  1  0
 11 13  1  0
 12 11  2  0
 14 13  1  0
 15 16  1  0
 15 14  1  0
 17 16  1  6
 17 18  1  0
 18  7  1  0
 19 17  1  0
 20 19  2  0
 21 22  1  0
 22 23  1  0
 23 25  1  0
 23 24  1  1
 25 26  1  6
 25 27  1  0
 26 19  1  0
 27 29  1  0
 28 27  2  0
M  END
$$$$
