ERI.pdb
     RDKit          3D

 29 28  0  0  1  0  0  0  0  0999 V2000
   25.9782  -21.3285  -18.4995 N   0  0  0  0  0  0  0  0  0  0  0  0
   26.0236  -21.9011  -17.1917 C   0  0  1  0  0  0  0  0  0  0  0  0
   27.3944  -22.4692  -16.9307 C   0  0  0  0  0  0  0  0  0  0  0  0
   28.5239  -21.7682  -17.5816 C   0  0  0  0  0  0  0  0  0  0  0  0
   29.8583  -22.3432  -17.4319 C   0  0  0  0  0  0  0  0  0  0  0  0
   30.8341  -21.8318  -18.0538 O   0  0  0  0  0  0  0  0  0  0  0  0
   25.7563  -20.9175  -16.0917 C   0  0  0  0  0  0  0  0  0  0  0  0
   25.9418  -19.7095  -16.3769 O   0  0  0  0  0  0  0  0  0  0  0  0
   30.1163  -23.4336  -16.6381 O   0  0  0  0  0  0  0  0  0  0  0  0
   18.9354  -21.7403  -15.0155 N   0  0  0  0  0  0  0  0  0  0  0  0
   18.7147  -20.8832  -13.8843 C   0  0  0  0  0  0  0  0  0  0  0  0
   17.6560  -21.0571  -13.1895 N   0  0  0  0  0  0  0  0  0  0  0  0
   19.6594  -19.8737  -13.5636 N   0  0  0  0  0  0  0  0  0  0  0  0
   20.7167  -19.6156  -14.5217 C   0  0  0  0  0  0  0  0  0  0  0  0
   22.0744  -19.6018  -13.8567 C   0  0  0  0  0  0  0  0  0  0  0  0
   23.1151  -20.3279  -14.6533 C   0  0  0  0  0  0  0  0  0  0  0  0
   24.4417  -20.4415  -13.9760 C   0  0  2  0  0  0  0  0  0  0  0  0
   25.3256  -21.2499  -14.7989 N   0  0  0  0  0  0  0  0  0  0  0  0
   24.2425  -21.0576  -12.6340 C   0  0  0  0  0  0  0  0  0  0  0  0
   23.8220  -22.2355  -12.5696 O   0  0  0  0  0  0  0  0  0  0  0  0
   17.4574  -20.4937  -12.3614 C   0  0  0  0  0  0  0  0  0  0  0  0
   27.5415  -19.6834   -8.4622 C   0  0  0  0  0  0  0  0  0  0  0  0
   26.6996  -20.4271   -9.4758 C   0  0  2  0  0  0  0  0  0  0  0  0
   25.2325  -20.3573   -9.0994 C   0  0  0  0  0  0  0  0  0  0  0  0
   25.0418  -20.9568   -7.7358 C   0  0  2  0  0  0  0  0  0  0  0  0
   24.3463  -20.9373  -10.1504 N   0  0  0  0  0  0  0  0  0  0  0  0
   24.5187  -20.3375  -11.4451 C   0  0  0  0  0  0  0  0  0  0  0  0
   22.9361  -20.7732   -9.6818 O   0  0  0  0  0  0  0  0  0  0  0  0
   22.2816  -19.7464   -9.9955 O   0  0  0  0  0  0  0  0  0  0  0  0
  2  1  1  6
  3  4  1  0
  3  2  1  0
  4  5  1  0
  5  9  1  0
  5  6  2  0
  7  2  1  0
  7  8  2  0
 11 10  1  0
 11 13  1  0
 12 11  2  0
 14 13  1  0
 15 16  1  0
 15 14  1  0
 17 16  1  6
 17 18  1  0
 18  7  1  0
 19 17  1  0
 20 19  2  0
 21 22  1  0
 22 23  1  0
 23 25  1  0
 23 24  1  6
 25 26  1  6
 25 27  1  0
 26 19  1  0
 27 29  1  0
 28 27  2  0
M  END
$$$$
