ERI.pdb
     RDKit          3D

 29 28  0  0  1  0  0  0  0  0999 V2000
   23.7744  -24.1296  -15.2790 N   0  0  0  0  0  0  0  0  0  0  0  0
   22.5702  -24.8430  -15.5642 C   0  0  1  0  0  0  0  0  0  0  0  0
   22.4105  -24.9993  -17.0542 C   0  0  0  0  0  0  0  0  0  0  0  0
   22.1390  -23.7579  -17.8133 C   0  0  0  0  0  0  0  0  0  0  0  0
   20.8309  -23.1302  -17.6452 C   0  0  0  0  0  0  0  0  0  0  0  0
   20.7157  -22.1114  -16.9040 O   0  0  0  0  0  0  0  0  0  0  0  0
   22.5363  -26.2267  -14.9872 C   0  0  0  0  0  0  0  0  0  0  0  0
   23.4629  -26.9942  -15.3438 O   0  0  0  0  0  0  0  0  0  0  0  0
   19.6946  -23.5971  -18.2588 O   0  0  0  0  0  0  0  0  0  0  0  0
   19.0855  -24.3626  -10.1187 N   0  0  0  0  0  0  0  0  0  0  0  0
   17.8787  -24.8373  -10.7362 C   0  0  0  0  0  0  0  0  0  0  0  0
   16.9893  -23.9806  -11.0665 N   0  0  0  0  0  0  0  0  0  0  0  0
   17.6967  -26.2263  -10.9639 N   0  0  0  0  0  0  0  0  0  0  0  0
   18.8724  -27.0736  -10.9157 C   0  0  0  0  0  0  0  0  0  0  0  0
   19.6043  -27.0798  -12.2386 C   0  0  0  0  0  0  0  0  0  0  0  0
   20.7770  -28.0122  -12.2455 C   0  0  0  0  0  0  0  0  0  0  0  0
   21.5300  -28.0461  -13.5352 C   0  0  2  0  0  0  0  0  0  0  0  0
   21.5621  -26.7073  -14.0999 N   0  0  0  0  0  0  0  0  0  0  0  0
   20.8564  -29.0032  -14.4575 C   0  0  0  0  0  0  0  0  0  0  0  0
   19.9429  -28.5791  -15.2018 O   0  0  0  0  0  0  0  0  0  0  0  0
   16.1071  -24.2601  -11.4978 C   0  0  0  0  0  0  0  0  0  0  0  0
   23.1778  -31.7992  -18.1070 C   0  0  0  0  0  0  0  0  0  0  0  0
   22.1523  -31.0601  -17.2755 C   0  0  2  0  0  0  0  0  0  0  0  0
   21.4695  -32.0088  -16.3099 C   0  0  0  0  0  0  0  0  0  0  0  0
   20.8135  -33.1161  -17.0837 C   0  0  2  0  0  0  0  0  0  0  0  0
   20.5572  -31.3011  -15.3648 N   0  0  0  0  0  0  0  0  0  0  0  0
   21.2307  -30.3693  -14.5024 C   0  0  0  0  0  0  0  0  0  0  0  0
   19.8557  -32.3466  -14.5586 O   0  0  0  0  0  0  0  0  0  0  0  0
   20.2280  -32.5934  -13.3831 O   0  0  0  0  0  0  0  0  0  0  0  0
  2  1  1  6
  3  4  1  0
  3  2  1  0
  4  5  1  0
  5  9  1  0
  5  6  2  0
  7  2  1  0
  7  8  2  0
 11 10  1  0
 11 13  1  0
 12 11  2  0
 14 13  1  0
 15 16  1  0
 15 14  1  0
 17 16  1  1
 17 18  1  0
 18  7  1  0
 19 17  1  0
 20 19  2  0
 21 22  1  0
 22 23  1  0
 23 25  1  0
 23 24  1  1
 25 26  1  6
 25 27  1  0
 26 19  1  0
 27 29  1  0
 28 27  2  0
M  END
$$$$
