ERI.pdb
     RDKit          3D

 29 28  0  0  1  0  0  0  0  0999 V2000
   23.9378  -18.0437  -16.4929 N   0  0  0  0  0  0  0  0  0  0  0  0
   24.8451  -17.2389  -17.2476 C   0  0  1  0  0  0  0  0  0  0  0  0
   25.1113  -17.8851  -18.5823 C   0  0  0  0  0  0  0  0  0  0  0  0
   24.7947  -19.3276  -18.6816 C   0  0  0  0  0  0  0  0  0  0  0  0
   24.9935  -19.9803  -19.9731 C   0  0  0  0  0  0  0  0  0  0  0  0
   24.7021  -21.2040  -20.1079 O   0  0  0  0  0  0  0  0  0  0  0  0
   24.3313  -15.8606  -17.5393 C   0  0  0  0  0  0  0  0  0  0  0  0
   25.0361  -15.1620  -18.3074 O   0  0  0  0  0  0  0  0  0  0  0  0
   25.4928  -19.3248  -21.0716 O   0  0  0  0  0  0  0  0  0  0  0  0
   16.2587  -14.7450  -17.5039 N   0  0  0  0  0  0  0  0  0  0  0  0
   17.1643  -15.1103  -16.4506 C   0  0  0  0  0  0  0  0  0  0  0  0
   16.6766  -15.3975  -15.3044 N   0  0  0  0  0  0  0  0  0  0  0  0
   18.5618  -15.1441  -16.6957 N   0  0  0  0  0  0  0  0  0  0  0  0
   19.0071  -14.9688  -18.0645 C   0  0  0  0  0  0  0  0  0  0  0  0
   20.5160  -14.9790  -18.1607 C   0  0  0  0  0  0  0  0  0  0  0  0
   21.1600  -13.9874  -17.2406 C   0  0  0  0  0  0  0  0  0  0  0  0
   22.6528  -13.9754  -17.2947 C   0  0  2  0  0  0  0  0  0  0  0  0
   23.1470  -15.3148  -17.0226 N   0  0  0  0  0  0  0  0  0  0  0  0
   23.1602  -12.9999  -16.2891 C   0  0  0  0  0  0  0  0  0  0  0  0
   22.9800  -13.2409  -15.0734 O   0  0  0  0  0  0  0  0  0  0  0  0
   17.2681  -15.6958  -14.5275 C   0  0  0  0  0  0  0  0  0  0  0  0
   28.0394  -11.8734  -15.7782 C   0  0  0  0  0  0  0  0  0  0  0  0
   26.5477  -12.0615  -15.6087 C   0  0  2  0  0  0  0  0  0  0  0  0
   25.8268  -10.7353  -15.7517 C   0  0  0  0  0  0  0  0  0  0  0  0
   26.3699   -9.7647  -14.7426 C   0  0  2  0  0  0  0  0  0  0  0  0
   24.3428  -10.8866  -15.7158 N   0  0  0  0  0  0  0  0  0  0  0  0
   23.8347  -11.8181  -16.6852 C   0  0  0  0  0  0  0  0  0  0  0  0
   23.7531   -9.5303  -15.9349 O   0  0  0  0  0  0  0  0  0  0  0  0
   23.9330   -8.6188  -15.0876 O   0  0  0  0  0  0  0  0  0  0  0  0
  2  1  1  6
  3  4  1  0
  3  2  1  0
  4  5  1  0
  5  9  1  0
  5  6  2  0
  7  2  1  0
  7  8  2  0
 11 10  1  0
 11 13  1  0
 12 11  2  0
 14 13  1  0
 15 16  1  0
 15 14  1  0
 17 16  1  1
 17 18  1  0
 18  7  1  0
 19 17  1  0
 20 19  2  0
 21 22  1  0
 22 23  1  0
 23 25  1  0
 23 24  1  6
 25 26  1  1
 25 27  1  0
 26 19  1  0
 27 29  1  0
 28 27  2  0
M  END
$$$$
