ERI.pdb
     RDKit          3D

 29 28  0  0  1  0  0  0  0  0999 V2000
   20.5134  -18.8726  -16.5506 N   0  0  0  0  0  0  0  0  0  0  0  0
   20.4755  -18.0071  -15.4149 C   0  0  1  0  0  0  0  0  0  0  0  0
   19.6686  -18.6451  -14.3140 C   0  0  0  0  0  0  0  0  0  0  0  0
   18.4215  -19.3245  -14.7312 C   0  0  0  0  0  0  0  0  0  0  0  0
   17.4043  -19.5655  -13.7111 C   0  0  0  0  0  0  0  0  0  0  0  0
   16.3042  -20.0984  -14.0372 O   0  0  0  0  0  0  0  0  0  0  0  0
   21.8263  -17.7129  -14.8339 C   0  0  0  0  0  0  0  0  0  0  0  0
   21.9204  -17.8058  -13.5859 O   0  0  0  0  0  0  0  0  0  0  0  0
   17.5797  -19.2357  -12.3897 O   0  0  0  0  0  0  0  0  0  0  0  0
   26.7745  -22.5262  -12.1835 N   0  0  0  0  0  0  0  0  0  0  0  0
   25.5008  -22.1726  -12.7453 C   0  0  0  0  0  0  0  0  0  0  0  0
   24.5516  -23.0263  -12.6804 N   0  0  0  0  0  0  0  0  0  0  0  0
   25.3213  -20.9030  -13.3539 N   0  0  0  0  0  0  0  0  0  0  0  0
   26.5069  -20.1096  -13.6129 C   0  0  0  0  0  0  0  0  0  0  0  0
   26.1499  -18.7325  -14.1247 C   0  0  0  0  0  0  0  0  0  0  0  0
   24.7429  -18.6522  -14.6332 C   0  0  0  0  0  0  0  0  0  0  0  0
   24.3160  -17.2834  -15.0523 C   0  0  2  0  0  0  0  0  0  0  0  0
   22.9610  -17.3490  -15.5737 N   0  0  0  0  0  0  0  0  0  0  0  0
   25.2661  -16.7811  -16.0845 C   0  0  0  0  0  0  0  0  0  0  0  0
   25.3498  -17.3937  -17.1736 O   0  0  0  0  0  0  0  0  0  0  0  0
   23.6346  -22.8434  -13.0905 C   0  0  0  0  0  0  0  0  0  0  0  0
   26.2523  -11.3942  -15.4365 C   0  0  0  0  0  0  0  0  0  0  0  0
   25.7980  -12.7098  -16.0299 C   0  0  2  0  0  0  0  0  0  0  0  0
   26.9822  -13.4798  -16.5807 C   0  0  0  0  0  0  0  0  0  0  0  0
   27.6055  -12.6962  -17.7000 C   0  0  2  0  0  0  0  0  0  0  0  0
   26.6310  -14.8845  -16.9409 N   0  0  0  0  0  0  0  0  0  0  0  0
   26.0662  -15.6345  -15.8527 C   0  0  0  0  0  0  0  0  0  0  0  0
   27.8797  -15.5411  -17.4358 O   0  0  0  0  0  0  0  0  0  0  0  0
   28.6114  -16.1863  -16.6424 O   0  0  0  0  0  0  0  0  0  0  0  0
  2  1  1  6
  3  4  1  0
  3  2  1  0
  4  5  1  0
  5  9  1  0
  5  6  2  0
  7  2  1  0
  7  8  2  0
 11 10  1  0
 11 13  1  0
 12 11  2  0
 14 13  1  0
 15 16  1  0
 15 14  1  0
 17 16  1  6
 17 18  1  0
 18  7  1  0
 19 17  1  0
 20 19  2  0
 21 22  1  0
 22 23  1  0
 23 25  1  0
 23 24  1  1
 25 26  1  6
 25 27  1  0
 26 19  1  0
 27 29  1  0
 28 27  2  0
M  END
$$$$
