ERI.pdb
     RDKit          3D

 29 28  0  0  1  0  0  0  0  0999 V2000
   21.7154  -17.8810  -20.1804 N   0  0  0  0  0  0  0  0  0  0  0  0
   22.4856  -17.9483  -18.9792 C   0  0  1  0  0  0  0  0  0  0  0  0
   22.3552  -16.6555  -18.2165 C   0  0  0  0  0  0  0  0  0  0  0  0
   22.9423  -15.4585  -18.8596 C   0  0  0  0  0  0  0  0  0  0  0  0
   22.0547  -14.3331  -19.1407 C   0  0  0  0  0  0  0  0  0  0  0  0
   21.2094  -13.9700  -18.2722 O   0  0  0  0  0  0  0  0  0  0  0  0
   22.0525  -19.0374  -18.0438 C   0  0  0  0  0  0  0  0  0  0  0  0
   20.8527  -19.0031  -17.6777 O   0  0  0  0  0  0  0  0  0  0  0  0
   22.0865  -13.6345  -20.3225 O   0  0  0  0  0  0  0  0  0  0  0  0
   26.2458  -26.3067  -16.3439 N   0  0  0  0  0  0  0  0  0  0  0  0
   26.4808  -24.9213  -16.6410 C   0  0  0  0  0  0  0  0  0  0  0  0
   27.6124  -24.5908  -17.1353 N   0  0  0  0  0  0  0  0  0  0  0  0
   25.4700  -23.9587  -16.3836 N   0  0  0  0  0  0  0  0  0  0  0  0
   24.2331  -24.4273  -15.7897 C   0  0  0  0  0  0  0  0  0  0  0  0
   23.2093  -23.3186  -15.6968 C   0  0  0  0  0  0  0  0  0  0  0  0
   23.5210  -22.1674  -16.6036 C   0  0  0  0  0  0  0  0  0  0  0  0
   22.4655  -21.1110  -16.6437 C   0  0  2  0  0  0  0  0  0  0  0  0
   22.8786  -20.0637  -17.5627 N   0  0  0  0  0  0  0  0  0  0  0  0
   22.2736  -20.5741  -15.2670 C   0  0  0  0  0  0  0  0  0  0  0  0
   23.1812  -19.8738  -14.7628 O   0  0  0  0  0  0  0  0  0  0  0  0
   27.8307  -23.6239  -17.3803 C   0  0  0  0  0  0  0  0  0  0  0  0
   19.1161  -17.0252  -13.9512 C   0  0  0  0  0  0  0  0  0  0  0  0
   20.2424  -18.0355  -13.9632 C   0  0  2  0  0  0  0  0  0  0  0  0
   19.8795  -19.2436  -13.1220 C   0  0  0  0  0  0  0  0  0  0  0  0
   19.5666  -18.7972  -11.7227 C   0  0  2  0  0  0  0  0  0  0  0  0
   20.9059  -20.3235  -13.2030 N   0  0  0  0  0  0  0  0  0  0  0  0
   21.0931  -20.8424  -14.5302 C   0  0  0  0  0  0  0  0  0  0  0  0
   20.4790  -21.4122  -12.2714 O   0  0  0  0  0  0  0  0  0  0  0  0
   19.8651  -22.4168  -12.7129 O   0  0  0  0  0  0  0  0  0  0  0  0
  2  1  1  6
  3  4  1  0
  3  2  1  0
  4  5  1  0
  5  9  1  0
  5  6  2  0
  7  2  1  0
  7  8  2  0
 11 10  1  0
 11 13  1  0
 12 11  2  0
 14 13  1  0
 15 16  1  0
 15 14  1  0
 17 16  1  1
 17 18  1  0
 18  7  1  0
 19 17  1  0
 20 19  2  0
 21 22  1  0
 22 23  1  0
 23 25  1  0
 23 24  1  6
 25 26  1  1
 25 27  1  0
 26 19  1  0
 27 29  1  0
 28 27  2  0
M  END
$$$$
