ERI.pdb
     RDKit          3D

 29 28  0  0  1  0  0  0  0  0999 V2000
   27.4780  -20.8900  -15.2286 N   0  0  0  0  0  0  0  0  0  0  0  0
   28.0993  -20.2613  -14.1065 C   0  0  1  0  0  0  0  0  0  0  0  0
   28.8357  -19.0263  -14.5567 C   0  0  0  0  0  0  0  0  0  0  0  0
   29.0796  -18.9084  -16.0119 C   0  0  0  0  0  0  0  0  0  0  0  0
   27.9318  -18.6391  -16.8743 C   0  0  0  0  0  0  0  0  0  0  0  0
   26.7667  -18.6297  -16.3815 O   0  0  0  0  0  0  0  0  0  0  0  0
   27.1317  -19.8162  -13.0508 C   0  0  0  0  0  0  0  0  0  0  0  0
   26.4181  -18.8256  -13.3413 O   0  0  0  0  0  0  0  0  0  0  0  0
   28.0509  -18.3931  -18.2200 O   0  0  0  0  0  0  0  0  0  0  0  0
   19.5276  -20.2148  -11.9531 N   0  0  0  0  0  0  0  0  0  0  0  0
   20.5472  -20.1293  -12.9611 C   0  0  0  0  0  0  0  0  0  0  0  0
   20.2084  -19.7559  -14.1358 N   0  0  0  0  0  0  0  0  0  0  0  0
   21.8907  -20.4567  -12.6415 N   0  0  0  0  0  0  0  0  0  0  0  0
   22.1400  -21.0927  -11.3625 C   0  0  0  0  0  0  0  0  0  0  0  0
   23.3755  -20.5302  -10.6967 C   0  0  0  0  0  0  0  0  0  0  0  0
   24.6081  -20.6964  -11.5321 C   0  0  0  0  0  0  0  0  0  0  0  0
   25.8603  -20.1955  -10.8897 C   0  0  2  0  0  0  0  0  0  0  0  0
   26.9770  -20.4172  -11.7930 N   0  0  0  0  0  0  0  0  0  0  0  0
   26.0587  -20.9172   -9.6013 C   0  0  0  0  0  0  0  0  0  0  0  0
   26.3548  -22.1337   -9.6329 O   0  0  0  0  0  0  0  0  0  0  0  0
   20.8944  -19.6451  -14.8838 C   0  0  0  0  0  0  0  0  0  0  0  0
   29.3062  -18.7726   -6.0736 C   0  0  0  0  0  0  0  0  0  0  0  0
   28.4868  -19.6983   -6.9459 C   0  0  2  0  0  0  0  0  0  0  0  0
   27.1790  -20.0496   -6.2639 C   0  0  0  0  0  0  0  0  0  0  0  0
   27.4675  -20.6434   -4.9150 C   0  0  2  0  0  0  0  0  0  0  0  0
   26.2952  -20.8894   -7.1241 N   0  0  0  0  0  0  0  0  0  0  0  0
   25.9181  -20.2540   -8.3568 C   0  0  0  0  0  0  0  0  0  0  0  0
   25.0824  -21.2273   -6.3177 O   0  0  0  0  0  0  0  0  0  0  0  0
   24.0848  -20.4619   -6.3261 O   0  0  0  0  0  0  0  0  0  0  0  0
  2  1  1  6
  3  4  1  0
  3  2  1  0
  4  5  1  0
  5  9  1  0
  5  6  2  0
  7  2  1  0
  7  8  2  0
 11 10  1  0
 11 13  1  0
 12 11  2  0
 14 13  1  0
 15 16  1  0
 15 14  1  0
 17 16  1  6
 17 18  1  0
 18  7  1  0
 19 17  1  0
 20 19  2  0
 21 22  1  0
 22 23  1  0
 23 25  1  0
 23 24  1  6
 25 26  1  6
 25 27  1  0
 26 19  1  0
 27 29  1  0
 28 27  2  0
M  END
$$$$
