ERI.pdb
     RDKit          3D

 29 28  0  0  1  0  0  0  0  0999 V2000
   19.6417  -19.3305  -15.0838 N   0  0  0  0  0  0  0  0  0  0  0  0
   19.7244  -19.8268  -13.7469 C   0  0  1  0  0  0  0  0  0  0  0  0
   18.5005  -20.6466  -13.4304 C   0  0  0  0  0  0  0  0  0  0  0  0
   17.3508  -20.4802  -14.3477 C   0  0  0  0  0  0  0  0  0  0  0  0
   16.2781  -19.5778  -13.9371 C   0  0  0  0  0  0  0  0  0  0  0  0
   15.1388  -20.0480  -13.6520 O   0  0  0  0  0  0  0  0  0  0  0  0
   20.9055  -20.7186  -13.5053 C   0  0  0  0  0  0  0  0  0  0  0  0
   21.0013  -21.2042  -12.3521 O   0  0  0  0  0  0  0  0  0  0  0  0
   16.4417  -18.2175  -13.8444 O   0  0  0  0  0  0  0  0  0  0  0  0
   25.9295  -26.1808  -15.9116 N   0  0  0  0  0  0  0  0  0  0  0  0
   24.7851  -25.8933  -16.7305 C   0  0  0  0  0  0  0  0  0  0  0  0
   23.9553  -26.8369  -16.9652 N   0  0  0  0  0  0  0  0  0  0  0  0
   24.5989  -24.5886  -17.2574 N   0  0  0  0  0  0  0  0  0  0  0  0
   25.4323  -23.5264  -16.7286 C   0  0  0  0  0  0  0  0  0  0  0  0
   24.9267  -23.0420  -15.3886 C   0  0  0  0  0  0  0  0  0  0  0  0
   23.5788  -22.3942  -15.4797 C   0  0  0  0  0  0  0  0  0  0  0  0
   23.0895  -21.8064  -14.1965 C   0  0  2  0  0  0  0  0  0  0  0  0
   21.8851  -21.0362  -14.4576 N   0  0  0  0  0  0  0  0  0  0  0  0
   24.1639  -20.9476  -13.6233 C   0  0  0  0  0  0  0  0  0  0  0  0
   24.3512  -19.8109  -14.1145 O   0  0  0  0  0  0  0  0  0  0  0  0
   23.1764  -26.7191  -17.6149 C   0  0  0  0  0  0  0  0  0  0  0  0
   25.2635  -20.7338   -8.2557 C   0  0  0  0  0  0  0  0  0  0  0  0
   25.0271  -20.4083   -9.7143 C   0  0  2  0  0  0  0  0  0  0  0  0
   26.2419  -20.7770  -10.5432 C   0  0  0  0  0  0  0  0  0  0  0  0
   27.4464  -20.0611  -10.0027 C   0  0  2  0  0  0  0  0  0  0  0  0
   26.0172  -20.5759  -12.0045 N   0  0  0  0  0  0  0  0  0  0  0  0
   24.9662  -21.3945  -12.5440 C   0  0  0  0  0  0  0  0  0  0  0  0
   27.3111  -20.8634  -12.6961 O   0  0  0  0  0  0  0  0  0  0  0  0
   27.5286  -22.0029  -13.1811 O   0  0  0  0  0  0  0  0  0  0  0  0
  2  1  1  6
  3  4  1  0
  3  2  1  0
  4  5  1  0
  5  9  1  0
  5  6  2  0
  7  2  1  0
  7  8  2  0
 11 10  1  0
 11 13  1  0
 12 11  2  0
 14 13  1  0
 15 16  1  0
 15 14  1  0
 17 16  1  6
 17 18  1  0
 18  7  1  0
 19 17  1  0
 20 19  2  0
 21 22  1  0
 22 23  1  0
 23 25  1  0
 23 24  1  6
 25 26  1  6
 25 27  1  0
 26 19  1  0
 27 29  1  0
 28 27  2  0
M  END
$$$$
