KDM.pdb
     RDKit          3D

 26 25  0  0  1  0  0  0  0  0999 V2000
    8.0565  -20.1803   23.5111 N   0  0  0  0  0  0  0  0  0  0  0  0
    9.4435  -20.6005   23.6064 C   0  0  1  0  0  0  0  0  0  0  0  0
    9.7532  -21.6908   22.6150 C   0  0  0  0  0  0  0  0  0  0  0  0
    8.6387  -21.9412   21.6442 C   0  0  0  0  0  0  0  0  0  0  0  0
    8.8875  -23.0428   20.6838 C   0  0  0  0  0  0  0  0  0  0  0  0
    7.7943  -23.1749   19.6378 C   0  0  0  0  0  0  0  0  0  0  0  0
    8.1994  -24.2037   18.6814 N   0  0  0  0  0  0  0  0  0  0  0  0
   10.2801  -19.4291   23.2333 C   0  0  0  0  0  0  0  0  0  0  0  0
   11.5205  -19.5436   23.3190 O   0  0  0  0  0  0  0  0  0  0  0  0
    9.6985  -18.1888   22.7835 N   0  0  0  0  0  0  0  0  0  0  0  0
   10.5266  -17.0653   22.4987 C   0  0  1  0  0  0  0  0  0  0  0  0
   10.0458  -16.3385   21.2796 C   0  0  0  0  0  0  0  0  0  0  0  0
   10.0965  -17.1675   20.0671 C   0  0  0  0  0  0  0  0  0  0  0  0
   11.1228  -17.8698   19.8611 O   0  0  0  0  0  0  0  0  0  0  0  0
   10.6616  -16.1516   23.6652 C   0  0  0  0  0  0  0  0  0  0  0  0
   11.0719  -14.9792   23.4836 O   0  0  0  0  0  0  0  0  0  0  0  0
    9.0536  -17.1782   19.1790 O   0  0  0  0  0  0  0  0  0  0  0  0
    6.7560  -11.2035   26.8229 C   0  0  0  0  0  0  0  0  0  0  0  0
    7.5365  -12.2642   25.5620 S   0  0  0  0  0  0  0  0  0  0  0  0
    8.0096  -13.8497   26.2284 C   0  0  0  0  0  0  0  0  0  0  0  0
    8.7493  -14.7725   25.3533 C   0  0  0  0  0  0  0  0  0  0  0  0
    9.7966  -15.6005   25.9883 C   0  0  2  0  0  0  0  0  0  0  0  0
   10.3447  -16.5516   24.9816 N   0  0  0  0  0  0  0  0  0  0  0  0
    9.4814  -16.3191   27.2153 C   0  0  0  0  0  0  0  0  0  0  0  0
    9.2873  -17.7319   27.2079 O   0  0  0  0  0  0  0  0  0  0  0  0
    9.3524  -15.8113   28.3477 O   0  0  0  0  0  0  0  0  0  0  0  0
  2  1  1  6
  3  2  1  0
  4  3  1  0
  5  4  1  0
  6  5  1  0
  7  6  1  0
  8  9  2  0
  8  2  1  0
 10  8  1  0
 11 10  1  0
 11 12  1  6
 13 12  1  0
 14 13  2  0
 15 11  1  0
 16 15  2  0
 17 13  1  0
 19 18  1  0
 20 19  1  0
 21 20  1  0
 22 21  1  6
 22 23  1  0
 23 15  1  0
 24 25  1  0
 24 22  1  0
 26 24  2  0
M  END
$$$$
