KDM.pdb
     RDKit          3D

 26 25  0  0  1  0  0  0  0  0999 V2000
    9.5452  -14.6553   19.1028 N   0  0  0  0  0  0  0  0  0  0  0  0
    8.6460  -14.1105   20.1049 C   0  0  1  0  0  0  0  0  0  0  0  0
    7.2199  -14.1194   19.6215 C   0  0  0  0  0  0  0  0  0  0  0  0
    7.0264  -13.3716   18.3368 C   0  0  0  0  0  0  0  0  0  0  0  0
    7.5953  -14.0360   17.1399 C   0  0  0  0  0  0  0  0  0  0  0  0
    7.3657  -13.2498   15.8608 C   0  0  0  0  0  0  0  0  0  0  0  0
    8.0328  -13.9534   14.7666 N   0  0  0  0  0  0  0  0  0  0  0  0
    8.7069  -15.0159   21.2830 C   0  0  0  0  0  0  0  0  0  0  0  0
    7.9090  -14.8113   22.2214 O   0  0  0  0  0  0  0  0  0  0  0  0
    9.6503  -16.1036   21.3610 N   0  0  0  0  0  0  0  0  0  0  0  0
    9.7196  -16.9156   22.5292 C   0  0  1  0  0  0  0  0  0  0  0  0
   10.6071  -18.1025   22.3068 C   0  0  0  0  0  0  0  0  0  0  0  0
   10.7194  -18.9586   23.4961 C   0  0  0  0  0  0  0  0  0  0  0  0
    9.8869  -19.8933   23.6452 O   0  0  0  0  0  0  0  0  0  0  0  0
   10.1284  -16.1422   23.7327 C   0  0  0  0  0  0  0  0  0  0  0  0
   10.6831  -15.0256   23.5869 O   0  0  0  0  0  0  0  0  0  0  0  0
   11.7054  -18.7475   24.4234 O   0  0  0  0  0  0  0  0  0  0  0  0
    6.7264  -11.4748   25.6178 C   0  0  0  0  0  0  0  0  0  0  0  0
    7.8209  -12.4687   26.6848 S   0  0  0  0  0  0  0  0  0  0  0  0
    7.4410  -14.2088   26.5882 C   0  0  0  0  0  0  0  0  0  0  0  0
    8.1882  -15.0249   25.6185 C   0  0  0  0  0  0  0  0  0  0  0  0
    9.3764  -15.7440   26.1253 C   0  0  2  0  0  0  0  0  0  0  0  0
    9.9169  -16.6161   25.0458 N   0  0  0  0  0  0  0  0  0  0  0  0
    9.2653  -16.5096   27.3594 C   0  0  0  0  0  0  0  0  0  0  0  0
    9.5344  -15.9059   28.6231 O   0  0  0  0  0  0  0  0  0  0  0  0
    8.9409  -17.7111   27.4480 O   0  0  0  0  0  0  0  0  0  0  0  0
  2  1  1  6
  3  2  1  0
  4  3  1  0
  5  4  1  0
  6  5  1  0
  7  6  1  0
  8  9  2  0
  8  2  1  0
 10  8  1  0
 11 10  1  0
 11 12  1  6
 13 12  1  0
 14 13  2  0
 15 11  1  0
 16 15  2  0
 17 13  1  0
 19 18  1  0
 20 19  1  0
 21 20  1  0
 22 21  1  6
 22 23  1  0
 23 15  1  0
 24 25  1  0
 24 22  1  0
 26 24  2  0
M  END
$$$$
