KDM.pdb
     RDKit          3D

 26 25  0  0  1  0  0  0  0  0999 V2000
    9.7720  -14.3706   18.9439 N   0  0  0  0  0  0  0  0  0  0  0  0
    8.8751  -13.8829   19.9769 C   0  0  1  0  0  0  0  0  0  0  0  0
    7.4537  -13.8246   19.4832 C   0  0  0  0  0  0  0  0  0  0  0  0
    7.3299  -13.2488   18.1047 C   0  0  0  0  0  0  0  0  0  0  0  0
    7.7308  -14.1653   17.0105 C   0  0  0  0  0  0  0  0  0  0  0  0
    7.5277  -13.5647   15.6304 C   0  0  0  0  0  0  0  0  0  0  0  0
    7.7457  -14.6161   14.6383 N   0  0  0  0  0  0  0  0  0  0  0  0
    8.9058  -14.8749   21.0843 C   0  0  0  0  0  0  0  0  0  0  0  0
    8.0509  -14.7708   21.9884 O   0  0  0  0  0  0  0  0  0  0  0  0
    9.8837  -15.9334   21.1332 N   0  0  0  0  0  0  0  0  0  0  0  0
    9.8906  -16.8595   22.2154 C   0  0  1  0  0  0  0  0  0  0  0  0
   10.7083  -18.0701   21.8816 C   0  0  0  0  0  0  0  0  0  0  0  0
   10.8816  -18.9725   23.0286 C   0  0  0  0  0  0  0  0  0  0  0  0
   10.0338  -19.8881   23.2072 O   0  0  0  0  0  0  0  0  0  0  0  0
   10.3304  -16.2348   23.4922 C   0  0  0  0  0  0  0  0  0  0  0  0
   11.2507  -15.3812   23.4740 O   0  0  0  0  0  0  0  0  0  0  0  0
   11.9396  -18.8238   23.8861 O   0  0  0  0  0  0  0  0  0  0  0  0
    5.8428  -12.3057   26.9832 C   0  0  0  0  0  0  0  0  0  0  0  0
    7.6047  -12.7741   26.9980 S   0  0  0  0  0  0  0  0  0  0  0  0
    7.9918  -13.9433   25.7076 C   0  0  0  0  0  0  0  0  0  0  0  0
    9.4046  -14.2962   25.4981 C   0  0  0  0  0  0  0  0  0  0  0  0
    9.8230  -15.6527   25.9113 C   0  0  2  0  0  0  0  0  0  0  0  0
    9.7507  -16.5652   24.7365 N   0  0  0  0  0  0  0  0  0  0  0  0
    9.1680  -16.2766   27.0529 C   0  0  0  0  0  0  0  0  0  0  0  0
    8.3056  -17.3990   26.8797 O   0  0  0  0  0  0  0  0  0  0  0  0
    9.2797  -15.9218   28.2438 O   0  0  0  0  0  0  0  0  0  0  0  0
  2  1  1  6
  3  2  1  0
  4  3  1  0
  5  4  1  0
  6  5  1  0
  7  6  1  0
  8  9  2  0
  8  2  1  0
 10  8  1  0
 11 10  1  0
 11 12  1  6
 13 12  1  0
 14 13  2  0
 15 11  1  0
 16 15  2  0
 17 13  1  0
 19 18  1  0
 20 19  1  0
 21 20  1  0
 22 21  1  6
 22 23  1  0
 23 15  1  0
 24 25  1  0
 24 22  1  0
 26 24  2  0
M  END
$$$$
