KDM.pdb
     RDKit          3D

 26 25  0  0  1  0  0  0  0  0999 V2000
    6.7256  -17.4880   20.2894 N   0  0  0  0  0  0  0  0  0  0  0  0
    7.7964  -16.5116   20.3871 C   0  0  1  0  0  0  0  0  0  0  0  0
    7.2548  -15.1321   20.6545 C   0  0  0  0  0  0  0  0  0  0  0  0
    7.0108  -14.3404   19.4052 C   0  0  0  0  0  0  0  0  0  0  0  0
    8.1512  -13.4986   18.9707 C   0  0  0  0  0  0  0  0  0  0  0  0
    7.8279  -12.6435   17.7579 C   0  0  0  0  0  0  0  0  0  0  0  0
    9.0000  -11.8255   17.4506 N   0  0  0  0  0  0  0  0  0  0  0  0
    8.6212  -16.8862   21.5663 C   0  0  0  0  0  0  0  0  0  0  0  0
    8.0514  -17.4450   22.5266 O   0  0  0  0  0  0  0  0  0  0  0  0
   10.0377  -16.6223   21.6211 N   0  0  0  0  0  0  0  0  0  0  0  0
   10.7758  -16.8906   22.8094 C   0  0  1  0  0  0  0  0  0  0  0  0
   12.2503  -16.8693   22.5425 C   0  0  0  0  0  0  0  0  0  0  0  0
   12.6716  -17.9130   21.5975 C   0  0  0  0  0  0  0  0  0  0  0  0
   12.2047  -19.0755   21.7377 O   0  0  0  0  0  0  0  0  0  0  0  0
   10.4063  -15.9766   23.9238 C   0  0  0  0  0  0  0  0  0  0  0  0
   10.2091  -14.7606   23.6820 O   0  0  0  0  0  0  0  0  0  0  0  0
   13.5522  -17.6317   20.5865 O   0  0  0  0  0  0  0  0  0  0  0  0
    6.1897  -12.0858   26.9265 C   0  0  0  0  0  0  0  0  0  0  0  0
    7.4392  -13.3620   27.2925 S   0  0  0  0  0  0  0  0  0  0  0  0
    7.0355  -14.9240   26.5317 C   0  0  0  0  0  0  0  0  0  0  0  0
    8.0488  -15.5539   25.6709 C   0  0  0  0  0  0  0  0  0  0  0  0
    9.4026  -15.7174   26.2420 C   0  0  2  0  0  0  0  0  0  0  0  0
   10.2669  -16.4236   25.2558 N   0  0  0  0  0  0  0  0  0  0  0  0
    9.5466  -16.3419   27.5500 C   0  0  0  0  0  0  0  0  0  0  0  0
    9.4261  -17.7544   27.7049 O   0  0  0  0  0  0  0  0  0  0  0  0
    9.7784  -15.7479   28.6224 O   0  0  0  0  0  0  0  0  0  0  0  0
  2  1  1  1
  3  2  1  0
  4  3  1  0
  5  4  1  0
  6  5  1  0
  7  6  1  0
  8  9  2  0
  8  2  1  0
 10  8  1  0
 11 10  1  0
 11 12  1  6
 13 12  1  0
 14 13  2  0
 15 11  1  0
 16 15  2  0
 17 13  1  0
 19 18  1  0
 20 19  1  0
 21 20  1  0
 22 21  1  6
 22 23  1  0
 23 15  1  0
 24 25  1  0
 24 22  1  0
 26 24  2  0
M  END
$$$$
