KDM.pdb
     RDKit          3D

 26 25  0  0  1  0  0  0  0  0999 V2000
    6.1600  -17.3594   21.4698 N   0  0  0  0  0  0  0  0  0  0  0  0
    7.4282  -16.6683   21.3171 C   0  0  1  0  0  0  0  0  0  0  0  0
    7.2375  -15.1746   21.2999 C   0  0  0  0  0  0  0  0  0  0  0  0
    7.5200  -14.5579   19.9631 C   0  0  0  0  0  0  0  0  0  0  0  0
    8.0682  -13.1816   20.0176 C   0  0  0  0  0  0  0  0  0  0  0  0
    8.2973  -12.5804   18.6418 C   0  0  0  0  0  0  0  0  0  0  0  0
    8.7632  -11.2057   18.8161 N   0  0  0  0  0  0  0  0  0  0  0  0
    8.2440  -16.9843   22.5195 C   0  0  0  0  0  0  0  0  0  0  0  0
    7.6546  -17.0983   23.6144 O   0  0  0  0  0  0  0  0  0  0  0  0
    9.6736  -17.1581   22.4471 N   0  0  0  0  0  0  0  0  0  0  0  0
   10.4282  -17.4248   23.6254 C   0  0  1  0  0  0  0  0  0  0  0  0
   11.8348  -17.8149   23.2859 C   0  0  0  0  0  0  0  0  0  0  0  0
   12.6516  -18.0882   24.4767 C   0  0  0  0  0  0  0  0  0  0  0  0
   12.2155  -18.9069   25.3302 O   0  0  0  0  0  0  0  0  0  0  0  0
   10.3900  -16.2929   24.5903 C   0  0  0  0  0  0  0  0  0  0  0  0
   10.9382  -15.2057   24.2847 O   0  0  0  0  0  0  0  0  0  0  0  0
   13.8597  -17.4683   24.6577 O   0  0  0  0  0  0  0  0  0  0  0  0
    6.5688  -12.2168   25.5916 C   0  0  0  0  0  0  0  0  0  0  0  0
    7.0713  -12.2017   27.3441 S   0  0  0  0  0  0  0  0  0  0  0  0
    8.3700  -13.3795   27.6728 C   0  0  0  0  0  0  0  0  0  0  0  0
    8.5341  -14.5036   26.7378 C   0  0  0  0  0  0  0  0  0  0  0  0
    9.7882  -15.2798   26.8398 C   0  0  2  0  0  0  0  0  0  0  0  0
    9.7570  -16.3909   25.8485 N   0  0  0  0  0  0  0  0  0  0  0  0
   10.1943  -15.7982   28.1389 C   0  0  0  0  0  0  0  0  0  0  0  0
   10.3838  -17.1968   28.3432 O   0  0  0  0  0  0  0  0  0  0  0  0
   10.4104  -15.1184   29.1625 O   0  0  0  0  0  0  0  0  0  0  0  0
  2  1  1  1
  3  2  1  0
  4  3  1  0
  5  4  1  0
  6  5  1  0
  7  6  1  0
  8  9  2  0
  8  2  1  0
 10  8  1  0
 11 10  1  0
 11 12  1  6
 13 12  1  0
 14 13  2  0
 15 11  1  0
 16 15  2  0
 17 13  1  0
 19 18  1  0
 20 19  1  0
 21 20  1  0
 22 21  1  1
 22 23  1  0
 23 15  1  0
 24 25  1  0
 24 22  1  0
 26 24  2  0
M  END
$$$$
