KDM.pdb
     RDKit          3D

 26 25  0  0  1  0  0  0  0  0999 V2000
    8.6956  -17.4495   20.3527 N   0  0  0  0  0  0  0  0  0  0  0  0
    8.8742  -18.6007   21.2199 C   0  0  1  0  0  0  0  0  0  0  0  0
    9.3122  -19.8108   20.4379 C   0  0  0  0  0  0  0  0  0  0  0  0
    9.6473  -19.5023   19.0098 C   0  0  0  0  0  0  0  0  0  0  0  0
   10.0294  -20.6793   18.1933 C   0  0  0  0  0  0  0  0  0  0  0  0
   10.5155  -20.3040   16.8043 C   0  0  0  0  0  0  0  0  0  0  0  0
   10.7514  -21.5367   16.0546 N   0  0  0  0  0  0  0  0  0  0  0  0
    9.9797  -18.2717   22.1586 C   0  0  0  0  0  0  0  0  0  0  0  0
   10.2421  -19.0895   23.0649 O   0  0  0  0  0  0  0  0  0  0  0  0
   10.7390  -17.0512   22.0447 N   0  0  0  0  0  0  0  0  0  0  0  0
   11.7473  -16.7374   23.0006 C   0  0  1  0  0  0  0  0  0  0  0  0
   12.7145  -15.7330   22.4514 C   0  0  0  0  0  0  0  0  0  0  0  0
   13.6669  -16.3227   21.5001 C   0  0  0  0  0  0  0  0  0  0  0  0
   14.1013  -17.4843   21.7258 O   0  0  0  0  0  0  0  0  0  0  0  0
   11.1762  -16.2954   24.3014 C   0  0  0  0  0  0  0  0  0  0  0  0
   11.9340  -16.1673   25.2939 O   0  0  0  0  0  0  0  0  0  0  0  0
   14.0753  -15.6277   20.3924 O   0  0  0  0  0  0  0  0  0  0  0  0
    6.8218  -11.1982   27.3297 C   0  0  0  0  0  0  0  0  0  0  0  0
    6.3103  -12.7574   26.5353 S   0  0  0  0  0  0  0  0  0  0  0  0
    7.5226  -14.0463   26.7605 C   0  0  0  0  0  0  0  0  0  0  0  0
    8.2532  -14.5204   25.5747 C   0  0  0  0  0  0  0  0  0  0  0  0
    9.2322  -15.6084   25.7838 C   0  0  2  0  0  0  0  0  0  0  0  0
    9.8033  -16.0111   24.4686 N   0  0  0  0  0  0  0  0  0  0  0  0
    8.8214  -16.7961   26.5200 C   0  0  0  0  0  0  0  0  0  0  0  0
    8.6903  -16.7694   27.9398 O   0  0  0  0  0  0  0  0  0  0  0  0
    8.5526  -17.9083   26.0225 O   0  0  0  0  0  0  0  0  0  0  0  0
  2  1  1  6
  3  2  1  0
  4  3  1  0
  5  4  1  0
  6  5  1  0
  7  6  1  0
  8  9  2  0
  8  2  1  0
 10  8  1  0
 11 10  1  0
 11 12  1  6
 13 12  1  0
 14 13  2  0
 15 11  1  0
 16 15  2  0
 17 13  1  0
 19 18  1  0
 20 19  1  0
 21 20  1  0
 22 21  1  6
 22 23  1  0
 23 15  1  0
 24 25  1  0
 24 22  1  0
 26 24  2  0
M  END
$$$$
