KDM.pdb
     RDKit          3D

 26 25  0  0  1  0  0  0  0  0999 V2000
   10.2441  -13.2244   19.0159 N   0  0  0  0  0  0  0  0  0  0  0  0
    8.8539  -13.2321   19.4363 C   0  0  1  0  0  0  0  0  0  0  0  0
    7.9296  -13.4246   18.2631 C   0  0  0  0  0  0  0  0  0  0  0  0
    8.4422  -14.4169   17.2633 C   0  0  0  0  0  0  0  0  0  0  0  0
    7.5949  -14.5777   16.0574 C   0  0  0  0  0  0  0  0  0  0  0  0
    8.1797  -15.5501   15.0479 C   0  0  0  0  0  0  0  0  0  0  0  0
    8.3690  -14.8383   13.7851 N   0  0  0  0  0  0  0  0  0  0  0  0
    8.6738  -14.4113   20.3242 C   0  0  0  0  0  0  0  0  0  0  0  0
    7.5426  -14.6083   20.8149 O   0  0  0  0  0  0  0  0  0  0  0  0
    9.7581  -15.3135   20.6232 N   0  0  0  0  0  0  0  0  0  0  0  0
    9.5857  -16.3569   21.5774 C   0  0  1  0  0  0  0  0  0  0  0  0
   10.6208  -17.4256   21.3980 C   0  0  0  0  0  0  0  0  0  0  0  0
   10.5306  -18.0901   20.0902 C   0  0  0  0  0  0  0  0  0  0  0  0
    9.4407  -18.6341   19.7659 O   0  0  0  0  0  0  0  0  0  0  0  0
    9.5593  -15.8472   22.9750 C   0  0  0  0  0  0  0  0  0  0  0  0
   10.5261  -15.1688   23.4004 O   0  0  0  0  0  0  0  0  0  0  0  0
   11.6052  -18.1194   19.2411 O   0  0  0  0  0  0  0  0  0  0  0  0
    6.8117  -10.9816   27.2095 C   0  0  0  0  0  0  0  0  0  0  0  0
    5.9844  -12.5117   26.6632 S   0  0  0  0  0  0  0  0  0  0  0  0
    7.1121  -13.8926   26.6066 C   0  0  0  0  0  0  0  0  0  0  0  0
    7.3101  -14.5686   25.3149 C   0  0  0  0  0  0  0  0  0  0  0  0
    8.4316  -15.5279   25.2277 C   0  0  2  0  0  0  0  0  0  0  0  0
    8.4817  -16.0972   23.8524 N   0  0  0  0  0  0  0  0  0  0  0  0
    8.5163  -16.6058   26.2037 C   0  0  0  0  0  0  0  0  0  0  0  0
    8.8237  -16.3350   27.5697 O   0  0  0  0  0  0  0  0  0  0  0  0
    8.3400  -17.8188   25.9708 O   0  0  0  0  0  0  0  0  0  0  0  0
  2  1  1  6
  3  2  1  0
  4  3  1  0
  5  4  1  0
  6  5  1  0
  7  6  1  0
  8  9  2  0
  8  2  1  0
 10  8  1  0
 11 10  1  0
 11 12  1  1
 13 12  1  0
 14 13  2  0
 15 11  1  0
 16 15  2  0
 17 13  1  0
 19 18  1  0
 20 19  1  0
 21 20  1  0
 22 21  1  6
 22 23  1  0
 23 15  1  0
 24 25  1  0
 24 22  1  0
 26 24  2  0
M  END
$$$$
