KDM.pdb
     RDKit          3D

 26 25  0  0  1  0  0  0  0  0999 V2000
    7.6666  -19.7994   20.2101 N   0  0  0  0  0  0  0  0  0  0  0  0
    7.4983  -18.4532   20.7284 C   0  0  1  0  0  0  0  0  0  0  0  0
    6.2233  -18.3282   21.5200 C   0  0  0  0  0  0  0  0  0  0  0  0
    5.0955  -19.1389   20.9562 C   0  0  0  0  0  0  0  0  0  0  0  0
    3.8355  -19.0757   21.7347 C   0  0  0  0  0  0  0  0  0  0  0  0
    2.7259  -19.9221   21.1354 C   0  0  0  0  0  0  0  0  0  0  0  0
    1.5627  -19.8406   22.0172 N   0  0  0  0  0  0  0  0  0  0  0  0
    8.6185  -18.2076   21.6751 C   0  0  0  0  0  0  0  0  0  0  0  0
    8.7108  -18.9456   22.6781 O   0  0  0  0  0  0  0  0  0  0  0  0
    9.5808  -17.1552   21.4614 N   0  0  0  0  0  0  0  0  0  0  0  0
   10.6001  -16.9038   22.4240 C   0  0  1  0  0  0  0  0  0  0  0  0
   11.8220  -16.3281   21.7749 C   0  0  0  0  0  0  0  0  0  0  0  0
   12.9484  -16.1877   22.7084 C   0  0  0  0  0  0  0  0  0  0  0  0
   13.8340  -15.3264   22.4573 O   0  0  0  0  0  0  0  0  0  0  0  0
   10.1214  -16.0519   23.5460 C   0  0  0  0  0  0  0  0  0  0  0  0
   10.0568  -14.8081   23.3894 O   0  0  0  0  0  0  0  0  0  0  0  0
   13.0367  -16.9741   23.8267 O   0  0  0  0  0  0  0  0  0  0  0  0
    6.5001  -11.3303   26.6011 C   0  0  0  0  0  0  0  0  0  0  0  0
    6.2147  -13.1228   26.4299 S   0  0  0  0  0  0  0  0  0  0  0  0
    7.6972  -14.0641   26.7426 C   0  0  0  0  0  0  0  0  0  0  0  0
    8.1844  -14.9567   25.6793 C   0  0  0  0  0  0  0  0  0  0  0  0
    9.4153  -15.7246   25.9632 C   0  0  2  0  0  0  0  0  0  0  0  0
    9.7329  -16.5890   24.7927 N   0  0  0  0  0  0  0  0  0  0  0  0
    9.4892  -16.5140   27.1851 C   0  0  0  0  0  0  0  0  0  0  0  0
    9.4130  -15.8911   28.4657 O   0  0  0  0  0  0  0  0  0  0  0  0
    9.6198  -17.7532   27.2484 O   0  0  0  0  0  0  0  0  0  0  0  0
  2  1  1  1
  3  2  1  0
  4  3  1  0
  5  4  1  0
  6  5  1  0
  7  6  1  0
  8  9  2  0
  8  2  1  0
 10  8  1  0
 11 10  1  0
 11 12  1  6
 13 12  1  0
 14 13  2  0
 15 11  1  0
 16 15  2  0
 17 13  1  0
 19 18  1  0
 20 19  1  0
 21 20  1  0
 22 21  1  6
 22 23  1  0
 23 15  1  0
 24 25  1  0
 24 22  1  0
 26 24  2  0
M  END
$$$$
