FVS.pdb
     RDKit          3D

 25 25  0  0  1  0  0  0  0  0999 V2000
   23.4505   -9.6631  -20.4017 N   0  0  0  0  0  0  0  0  0  0  0  0
   23.0528   -8.5837  -19.5298 C   0  0  1  0  0  0  0  0  0  0  0  0
   22.1046   -7.7036  -20.3234 C   0  0  0  0  0  0  0  0  0  0  0  0
   22.7896   -6.8938  -21.3289 C   0  0  0  0  0  0  0  0  0  0  0  0
   23.3541   -5.6823  -21.0007 C   0  0  0  0  0  0  0  0  0  0  0  0
   23.9892   -4.9493  -21.9798 C   0  0  0  0  0  0  0  0  0  0  0  0
   24.0675   -5.4114  -23.2829 C   0  0  0  0  0  0  0  0  0  0  0  0
   23.5074   -6.6199  -23.6225 C   0  0  0  0  0  0  0  0  0  0  0  0
   22.8665   -7.3547  -22.6240 C   0  0  0  0  0  0  0  0  0  0  0  0
   22.3228   -9.1442  -18.3652 C   0  0  0  0  0  0  0  0  0  0  0  0
   21.6766  -10.2319  -18.4528 O   0  0  0  0  0  0  0  0  0  0  0  0
   23.1437   -8.0725  -14.3621 C   0  0  0  0  0  0  0  0  0  0  0  0
   22.5762   -9.3975  -14.8204 C   0  0  1  0  0  0  0  0  0  0  0  0
   21.8092   -9.9909  -13.6725 C   0  0  0  0  0  0  0  0  0  0  0  0
   21.6034   -9.1101  -15.9525 C   0  0  2  0  0  0  0  0  0  0  0  0
   22.2960   -8.5114  -17.0866 N   0  0  0  0  0  0  0  0  0  0  0  0
   20.4629   -8.3030  -15.5097 C   0  0  0  0  0  0  0  0  0  0  0  0
   20.6225   -7.0761  -15.3101 O   0  0  0  0  0  0  0  0  0  0  0  0
   15.7035   -7.7401  -15.1795 O   0  0  0  0  0  0  0  0  0  0  0  0
   16.7233   -8.6443  -15.4144 C   0  0  0  0  0  0  0  0  0  0  0  0
   18.0208   -8.0185  -14.9065 C   0  0  2  0  0  0  0  0  0  0  0  0
   19.1503   -8.8278  -15.2845 N   0  0  0  0  0  0  0  0  0  0  0  0
   17.9418   -7.7258  -13.4792 C   0  0  0  0  0  0  0  0  0  0  0  0
   17.4482   -6.5097  -13.0470 O   0  0  0  0  0  0  0  0  0  0  0  0
   18.3144   -8.5599  -12.6245 O   0  0  0  0  0  0  0  0  0  0  0  0
  2 10  1  0
  2  1  1  6
  3  2  1  0
  4  3  1  0
  5  4  2  0
  6  5  1  0
  7  8  1  0
  7  6  2  0
  8  9  2  0
  9  4  1  0
 10 11  2  0
 13 12  1  1
 14 13  1  0
 15 13  1  0
 15 16  1  6
 16 10  1  0
 17 22  1  0
 17 15  1  0
 18 17  2  0
 20 19  1  0
 21 20  1  1
 21 22  1  0
 23 24  1  0
 23 21  1  0
 25 23  2  0
M  END
$$$$
