FVS.pdb
     RDKit          3D

 25 25  0  0  1  0  0  0  0  0999 V2000
   27.9067  -20.4174  -10.8928 N   0  0  0  0  0  0  0  0  0  0  0  0
   26.6438  -20.9761  -10.4729 C   0  0  1  0  0  0  0  0  0  0  0  0
   26.2242  -20.2248   -9.2228 C   0  0  0  0  0  0  0  0  0  0  0  0
   27.2603  -20.2152   -8.1920 C   0  0  0  0  0  0  0  0  0  0  0  0
   27.3227  -19.2068   -7.2575 C   0  0  0  0  0  0  0  0  0  0  0  0
   28.3172  -19.2347   -6.3037 C   0  0  0  0  0  0  0  0  0  0  0  0
   29.2501  -20.2576   -6.2718 C   0  0  0  0  0  0  0  0  0  0  0  0
   29.1978  -21.2701   -7.2000 C   0  0  0  0  0  0  0  0  0  0  0  0
   28.1871  -21.2328   -8.1617 C   0  0  0  0  0  0  0  0  0  0  0  0
   25.6324  -20.7411  -11.5338 C   0  0  0  0  0  0  0  0  0  0  0  0
   25.4104  -19.5780  -11.9877 O   0  0  0  0  0  0  0  0  0  0  0  0
   23.7650  -21.6713  -15.6964 C   0  0  0  0  0  0  0  0  0  0  0  0
   24.6879  -21.9980  -14.5435 C   0  0  1  0  0  0  0  0  0  0  0  0
   25.9405  -21.1855  -14.7128 C   0  0  0  0  0  0  0  0  0  0  0  0
   23.9953  -21.5550  -13.2650 C   0  0  2  0  0  0  0  0  0  0  0  0
   24.8514  -21.7877  -12.1086 N   0  0  0  0  0  0  0  0  0  0  0  0
   22.6741  -22.1705  -13.1103 C   0  0  0  0  0  0  0  0  0  0  0  0
   22.5949  -23.4012  -12.8878 O   0  0  0  0  0  0  0  0  0  0  0  0
   19.1455  -19.9243  -13.0294 O   0  0  0  0  0  0  0  0  0  0  0  0
   19.2230  -21.0698  -12.2584 C   0  0  0  0  0  0  0  0  0  0  0  0
   20.1490  -22.0485  -12.9778 C   0  0  2  0  0  0  0  0  0  0  0  0
   21.4403  -21.4498  -13.1964 N   0  0  0  0  0  0  0  0  0  0  0  0
   19.5209  -22.5799  -14.1829 C   0  0  0  0  0  0  0  0  0  0  0  0
   18.4818  -23.4851  -14.0818 O   0  0  0  0  0  0  0  0  0  0  0  0
   19.9044  -22.2317  -15.3216 O   0  0  0  0  0  0  0  0  0  0  0  0
  2 10  1  0
  2  1  1  6
  3  2  1  0
  4  3  1  0
  5  4  2  0
  6  5  1  0
  7  8  1  0
  7  6  2  0
  8  9  2  0
  9  4  1  0
 10 11  2  0
 13 12  1  6
 14 13  1  0
 15 13  1  0
 15 16  1  1
 16 10  1  0
 17 22  1  0
 17 15  1  0
 18 17  2  0
 20 19  1  0
 21 20  1  6
 21 22  1  0
 23 24  1  0
 23 21  1  0
 25 23  2  0
M  END
$$$$
