FVS.pdb
     RDKit          3D

 25 25  0  0  1  0  0  0  0  0999 V2000
   23.1658  -10.3510  -16.8396 N   0  0  0  0  0  0  0  0  0  0  0  0
   22.4229   -9.2873  -17.4721 C   0  0  1  0  0  0  0  0  0  0  0  0
   20.9597   -9.5136  -17.1385 C   0  0  0  0  0  0  0  0  0  0  0  0
   20.3575  -10.5872  -17.9265 C   0  0  0  0  0  0  0  0  0  0  0  0
   20.3804  -10.5567  -19.3023 C   0  0  0  0  0  0  0  0  0  0  0  0
   19.7991  -11.5884  -20.0074 C   0  0  0  0  0  0  0  0  0  0  0  0
   19.1954  -12.6504  -19.3551 C   0  0  0  0  0  0  0  0  0  0  0  0
   19.1664  -12.6917  -17.9815 C   0  0  0  0  0  0  0  0  0  0  0  0
   19.7576  -11.6422  -17.2766 C   0  0  0  0  0  0  0  0  0  0  0  0
   22.8491   -7.9877  -16.8952 C   0  0  0  0  0  0  0  0  0  0  0  0
   23.2063   -7.8898  -15.6823 O   0  0  0  0  0  0  0  0  0  0  0  0
   24.9374   -3.6882  -17.0837 C   0  0  0  0  0  0  0  0  0  0  0  0
   24.5898   -5.0178  -17.7156 C   0  0  1  0  0  0  0  0  0  0  0  0
   25.7003   -5.9802  -17.4020 C   0  0  0  0  0  0  0  0  0  0  0  0
   23.3166   -5.5187  -17.0533 C   0  0  2  0  0  0  0  0  0  0  0  0
   22.8871   -6.7773  -17.6497 N   0  0  0  0  0  0  0  0  0  0  0  0
   22.2543   -4.5089  -17.0631 C   0  0  0  0  0  0  0  0  0  0  0  0
   21.9398   -3.9624  -18.1461 O   0  0  0  0  0  0  0  0  0  0  0  0
   19.1099   -4.3402  -14.3949 O   0  0  0  0  0  0  0  0  0  0  0  0
   19.1145   -3.8768  -15.6979 C   0  0  0  0  0  0  0  0  0  0  0  0
   20.4415   -3.1559  -15.9265 C   0  0  2  0  0  0  0  0  0  0  0  0
   21.5340   -4.0937  -15.8978 N   0  0  0  0  0  0  0  0  0  0  0  0
   20.5933   -2.0281  -15.0131 C   0  0  0  0  0  0  0  0  0  0  0  0
   19.6938   -0.9798  -15.0504 O   0  0  0  0  0  0  0  0  0  0  0  0
   21.5300   -1.9856  -14.1851 O   0  0  0  0  0  0  0  0  0  0  0  0
  2 10  1  0
  2  1  1  1
  3  2  1  0
  4  3  1  0
  5  4  2  0
  6  5  1  0
  7  8  1  0
  7  6  2  0
  8  9  2  0
  9  4  1  0
 10 11  2  0
 13 12  1  1
 14 13  1  0
 15 13  1  0
 15 16  1  6
 16 10  1  0
 17 22  1  0
 17 15  1  0
 18 17  2  0
 20 19  1  0
 21 20  1  1
 21 22  1  0
 23 24  1  0
 23 21  1  0
 25 23  2  0
M  END
$$$$
