FVS.pdb
     RDKit          3D

 25 25  0  0  1  0  0  0  0  0999 V2000
   18.1903  -11.0998  -15.8536 N   0  0  0  0  0  0  0  0  0  0  0  0
   19.1021  -10.1500  -16.4451 C   0  0  1  0  0  0  0  0  0  0  0  0
   18.4843   -9.7060  -17.7584 C   0  0  0  0  0  0  0  0  0  0  0  0
   18.5492  -10.7364  -18.7929 C   0  0  0  0  0  0  0  0  0  0  0  0
   17.4993  -11.6019  -18.9999 C   0  0  0  0  0  0  0  0  0  0  0  0
   17.6022  -12.5604  -19.9847 C   0  0  0  0  0  0  0  0  0  0  0  0
   18.7411  -12.6652  -20.7656 C   0  0  0  0  0  0  0  0  0  0  0  0
   19.7961  -11.8065  -20.5680 C   0  0  0  0  0  0  0  0  0  0  0  0
   19.6822  -10.8394  -19.5682 C   0  0  0  0  0  0  0  0  0  0  0  0
   19.2226   -8.9711  -15.5511 C   0  0  0  0  0  0  0  0  0  0  0  0
   18.3352   -8.7069  -14.6845 O   0  0  0  0  0  0  0  0  0  0  0  0
   22.8215   -7.1659  -14.6462 C   0  0  0  0  0  0  0  0  0  0  0  0
   21.5833   -6.9923  -13.7952 C   0  0  1  0  0  0  0  0  0  0  0  0
   21.7124   -5.6904  -13.0559 C   0  0  0  0  0  0  0  0  0  0  0  0
   20.3930   -6.8963  -14.7356 C   0  0  2  0  0  0  0  0  0  0  0  0
   20.3252   -8.0670  -15.6012 N   0  0  0  0  0  0  0  0  0  0  0  0
   20.3888   -5.6431  -15.4958 C   0  0  0  0  0  0  0  0  0  0  0  0
   21.2911   -5.4371  -16.3406 O   0  0  0  0  0  0  0  0  0  0  0  0
   17.0746   -3.5729  -16.2361 O   0  0  0  0  0  0  0  0  0  0  0  0
   18.1945   -3.3102  -17.0039 C   0  0  0  0  0  0  0  0  0  0  0  0
   19.4118   -3.3830  -16.0843 C   0  0  2  0  0  0  0  0  0  0  0  0
   19.4051   -4.6151  -15.3388 N   0  0  0  0  0  0  0  0  0  0  0  0
   19.5238   -2.1832  -15.2615 C   0  0  0  0  0  0  0  0  0  0  0  0
   19.6719   -0.9452  -15.8573 O   0  0  0  0  0  0  0  0  0  0  0  0
   19.4884   -2.2475  -14.0128 O   0  0  0  0  0  0  0  0  0  0  0  0
  2 10  1  0
  2  1  1  1
  3  2  1  0
  4  3  1  0
  5  4  2  0
  6  5  1  0
  7  8  1  0
  7  6  2  0
  8  9  2  0
  9  4  1  0
 10 11  2  0
 13 12  1  6
 14 13  1  0
 15 13  1  0
 15 16  1  6
 16 10  1  0
 17 22  1  0
 17 15  1  0
 18 17  2  0
 20 19  1  0
 21 20  1  1
 21 22  1  0
 23 24  1  0
 23 21  1  0
 25 23  2  0
M  END
$$$$
