FVS.pdb
     RDKit          3D

 25 25  0  0  1  0  0  0  0  0999 V2000
   28.1267  -19.4418  -15.8979 N   0  0  0  0  0  0  0  0  0  0  0  0
   27.2947  -18.7628  -14.9335 C   0  0  1  0  0  0  0  0  0  0  0  0
   26.3675  -17.8513  -15.7164 C   0  0  0  0  0  0  0  0  0  0  0  0
   27.0126  -16.6075  -16.1323 C   0  0  0  0  0  0  0  0  0  0  0  0
   27.5049  -16.4553  -17.4085 C   0  0  0  0  0  0  0  0  0  0  0  0
   28.1079  -15.2666  -17.7590 C   0  0  0  0  0  0  0  0  0  0  0  0
   28.2252  -14.2281  -16.8506 C   0  0  0  0  0  0  0  0  0  0  0  0
   27.7374  -14.3687  -15.5732 C   0  0  0  0  0  0  0  0  0  0  0  0
   27.1286  -15.5761  -15.2278 C   0  0  0  0  0  0  0  0  0  0  0  0
   26.4769  -19.7657  -14.2063 C   0  0  0  0  0  0  0  0  0  0  0  0
   26.2082  -20.8944  -14.7183 O   0  0  0  0  0  0  0  0  0  0  0  0
   24.4886  -21.5273  -10.0775 C   0  0  0  0  0  0  0  0  0  0  0  0
   25.4105  -20.5163  -10.7221 C   0  0  1  0  0  0  0  0  0  0  0  0
   26.8244  -20.9664  -10.4845 C   0  0  0  0  0  0  0  0  0  0  0  0
   25.1416  -20.5422  -12.2179 C   0  0  2  0  0  0  0  0  0  0  0  0
   25.9440  -19.5366  -12.9027 N   0  0  0  0  0  0  0  0  0  0  0  0
   23.7139  -20.4164  -12.5250 C   0  0  0  0  0  0  0  0  0  0  0  0
   23.1501  -19.3081  -12.3694 O   0  0  0  0  0  0  0  0  0  0  0  0
   21.4577  -23.5884  -14.0593 O   0  0  0  0  0  0  0  0  0  0  0  0
   21.1342  -22.3082  -14.4708 C   0  0  0  0  0  0  0  0  0  0  0  0
   21.5071  -21.3519  -13.3397 C   0  0  2  0  0  0  0  0  0  0  0  0
   22.8997  -21.4931  -13.0012 N   0  0  0  0  0  0  0  0  0  0  0  0
   20.5963  -21.4924  -12.2085 C   0  0  0  0  0  0  0  0  0  0  0  0
   19.2578  -21.1808  -12.3531 O   0  0  0  0  0  0  0  0  0  0  0  0
   21.0018  -21.8939  -11.0953 O   0  0  0  0  0  0  0  0  0  0  0  0
  2 10  1  0
  2  1  1  6
  3  2  1  0
  4  3  1  0
  5  4  2  0
  6  5  1  0
  7  8  1  0
  7  6  2  0
  8  9  2  0
  9  4  1  0
 10 11  2  0
 13 12  1  1
 14 13  1  0
 15 13  1  0
 15 16  1  6
 16 10  1  0
 17 22  1  0
 17 15  1  0
 18 17  2  0
 20 19  1  0
 21 20  1  6
 21 22  1  0
 23 24  1  0
 23 21  1  0
 25 23  2  0
M  END
$$$$
