FVS.pdb
     RDKit          3D

 25 25  0  0  1  0  0  0  0  0999 V2000
   29.3615  -19.9163  -12.3726 N   0  0  0  0  0  0  0  0  0  0  0  0
   28.3339  -20.9107  -12.1760 C   0  0  1  0  0  0  0  0  0  0  0  0
   28.2928  -21.2130  -10.6893 C   0  0  0  0  0  0  0  0  0  0  0  0
   29.5500  -21.7642  -10.1873 C   0  0  0  0  0  0  0  0  0  0  0  0
   30.4043  -22.4538  -11.0171 C   0  0  0  0  0  0  0  0  0  0  0  0
   31.5790  -22.9589  -10.5029 C   0  0  0  0  0  0  0  0  0  0  0  0
   31.9109  -22.7836   -9.1700 C   0  0  0  0  0  0  0  0  0  0  0  0
   31.0654  -22.0966   -8.3317 C   0  0  0  0  0  0  0  0  0  0  0  0
   29.8784  -21.5891   -8.8618 C   0  0  0  0  0  0  0  0  0  0  0  0
   27.0246  -20.3432  -12.5847 C   0  0  0  0  0  0  0  0  0  0  0  0
   26.7092  -19.1463  -12.3085 O   0  0  0  0  0  0  0  0  0  0  0  0
   23.7315  -19.7272  -15.9243 C   0  0  0  0  0  0  0  0  0  0  0  0
   24.9797  -20.4020  -15.4004 C   0  0  1  0  0  0  0  0  0  0  0  0
   26.1559  -19.5418  -15.7672 C   0  0  0  0  0  0  0  0  0  0  0  0
   24.8711  -20.4490  -13.8850 C   0  0  2  0  0  0  0  0  0  0  0  0
   26.0445  -21.0896  -13.3045 N   0  0  0  0  0  0  0  0  0  0  0  0
   23.6213  -21.0719  -13.4395 C   0  0  0  0  0  0  0  0  0  0  0  0
   23.4596  -22.3037  -13.6030 O   0  0  0  0  0  0  0  0  0  0  0  0
   19.3248  -20.6877  -11.2023 O   0  0  0  0  0  0  0  0  0  0  0  0
   20.5145  -20.0526  -11.5087 C   0  0  0  0  0  0  0  0  0  0  0  0
   21.2866  -20.9568  -12.4674 C   0  0  2  0  0  0  0  0  0  0  0  0
   22.5486  -20.3575  -12.8165 N   0  0  0  0  0  0  0  0  0  0  0  0
   20.4645  -21.3366  -13.6115 C   0  0  0  0  0  0  0  0  0  0  0  0
   20.2650  -20.4452  -14.6484 O   0  0  0  0  0  0  0  0  0  0  0  0
   19.9283  -22.4648  -13.6788 O   0  0  0  0  0  0  0  0  0  0  0  0
  2 10  1  0
  2  1  1  1
  3  2  1  0
  4  3  1  0
  5  4  2  0
  6  5  1  0
  7  8  1  0
  7  6  2  0
  8  9  2  0
  9  4  1  0
 10 11  2  0
 13 12  1  6
 14 13  1  0
 15 13  1  0
 15 16  1  1
 16 10  1  0
 17 22  1  0
 17 15  1  0
 18 17  2  0
 20 19  1  0
 21 20  1  1
 21 22  1  0
 23 24  1  0
 23 21  1  0
 25 23  2  0
M  END
$$$$
