FVS.pdb
     RDKit          3D

 25 25  0  0  1  0  0  0  0  0999 V2000
   26.5216  -22.0415  -12.0767 N   0  0  0  0  0  0  0  0  0  0  0  0
   25.4063  -21.1278  -12.1455 C   0  0  1  0  0  0  0  0  0  0  0  0
   25.8183  -19.8734  -11.3971 C   0  0  0  0  0  0  0  0  0  0  0  0
   25.7732  -20.0383   -9.9455 C   0  0  0  0  0  0  0  0  0  0  0  0
   26.8889  -19.8166   -9.1708 C   0  0  0  0  0  0  0  0  0  0  0  0
   26.8038  -19.9853   -7.8057 C   0  0  0  0  0  0  0  0  0  0  0  0
   25.6179  -20.3727   -7.2046 C   0  0  0  0  0  0  0  0  0  0  0  0
   24.4971  -20.5970   -7.9682 C   0  0  0  0  0  0  0  0  0  0  0  0
   24.5934  -20.4236   -9.3496 C   0  0  0  0  0  0  0  0  0  0  0  0
   25.1539  -20.7759  -13.5654 C   0  0  0  0  0  0  0  0  0  0  0  0
   26.0957  -20.7413  -14.4139 O   0  0  0  0  0  0  0  0  0  0  0  0
   22.5969  -21.4316  -17.4633 C   0  0  0  0  0  0  0  0  0  0  0  0
   22.7544  -21.5490  -15.9636 C   0  0  1  0  0  0  0  0  0  0  0  0
   23.5126  -22.8147  -15.6786 C   0  0  0  0  0  0  0  0  0  0  0  0
   23.5937  -20.3697  -15.4993 C   0  0  2  0  0  0  0  0  0  0  0  0
   23.8574  -20.4572  -14.0686 N   0  0  0  0  0  0  0  0  0  0  0  0
   22.9976  -19.0847  -15.8762 C   0  0  0  0  0  0  0  0  0  0  0  0
   21.9279  -18.7237  -15.3324 O   0  0  0  0  0  0  0  0  0  0  0  0
   25.1195  -16.0198  -17.3903 O   0  0  0  0  0  0  0  0  0  0  0  0
   23.9264  -16.1256  -18.0816 C   0  0  0  0  0  0  0  0  0  0  0  0
   22.9636  -16.9387  -17.2187 C   0  0  2  0  0  0  0  0  0  0  0  0
   23.5633  -18.1927  -16.8423 N   0  0  0  0  0  0  0  0  0  0  0  0
   21.6589  -17.0647  -17.8596 C   0  0  0  0  0  0  0  0  0  0  0  0
   20.6736  -16.1267  -17.6169 O   0  0  0  0  0  0  0  0  0  0  0  0
   21.4059  -18.0136  -18.6346 O   0  0  0  0  0  0  0  0  0  0  0  0
  2 10  1  0
  2  1  1  6
  3  2  1  0
  4  3  1  0
  5  4  2  0
  6  5  1  0
  7  8  1  0
  7  6  2  0
  8  9  2  0
  9  4  1  0
 10 11  2  0
 13 12  1  6
 14 13  1  0
 15 13  1  0
 15 16  1  1
 16 10  1  0
 17 22  1  0
 17 15  1  0
 18 17  2  0
 20 19  1  0
 21 20  1  6
 21 22  1  0
 23 24  1  0
 23 21  1  0
 25 23  2  0
M  END
$$$$
