TTY.pdb
     RDKit          3D

 27 27  0  0  1  0  0  0  0  0999 V2000
   43.5119  -15.6312  -13.3082 C   0  0  0  0  0  0  0  0  0  0  0  0
   43.2907  -15.1997  -11.8871 C   0  0  1  0  0  0  0  0  0  0  0  0
   41.9715  -14.8396  -11.6738 O   0  0  0  0  0  0  0  0  0  0  0  0
   43.7834  -16.1890  -10.8744 C   0  0  2  0  0  0  0  0  0  0  0  0
   43.1201  -17.4480  -11.0395 N   0  0  0  0  0  0  0  0  0  0  0  0
   43.7525  -15.6931   -9.4877 C   0  0  0  0  0  0  0  0  0  0  0  0
   42.8915  -16.1528   -8.6946 O   0  0  0  0  0  0  0  0  0  0  0  0
   46.0205  -16.1521   -6.8373 C   0  0  0  0  0  0  0  0  0  0  0  0
   45.8785  -14.6450   -6.8566 C   0  0  1  0  0  0  0  0  0  0  0  0
   47.0117  -14.1414   -7.5122 O   0  0  0  0  0  0  0  0  0  0  0  0
   44.6260  -14.2631   -7.6025 C   0  0  2  0  0  0  0  0  0  0  0  0
   44.6521  -14.7073   -8.9765 N   0  0  0  0  0  0  0  0  0  0  0  0
   44.3547  -12.8147   -7.5642 C   0  0  0  0  0  0  0  0  0  0  0  0
   44.6474  -12.1575   -8.5882 O   0  0  0  0  0  0  0  0  0  0  0  0
   42.6503   -4.6069   -5.1596 O   0  0  0  0  0  0  0  0  0  0  0  0
   42.6042   -5.9969   -5.2507 C   0  0  0  0  0  0  0  0  0  0  0  0
   42.0791   -6.6239   -6.3608 C   0  0  0  0  0  0  0  0  0  0  0  0
   42.0200   -7.9884   -6.4794 C   0  0  0  0  0  0  0  0  0  0  0  0
   42.4919   -8.8017   -5.4749 C   0  0  0  0  0  0  0  0  0  0  0  0
   42.4574  -10.2826   -5.5434 C   0  0  0  0  0  0  0  0  0  0  0  0
   43.6646  -10.7316   -6.3214 C   0  0  2  0  0  0  0  0  0  0  0  0
   43.7898  -12.1424   -6.4472 N   0  0  0  0  0  0  0  0  0  0  0  0
   44.9299  -10.1378   -5.8309 C   0  0  0  0  0  0  0  0  0  0  0  0
   45.4654   -8.9530   -6.3023 O   0  0  0  0  0  0  0  0  0  0  0  0
   43.0177   -8.1980   -4.3632 C   0  0  0  0  0  0  0  0  0  0  0  0
   43.0763   -6.8045   -4.2458 C   0  0  0  0  0  0  0  0  0  0  0  0
   45.5831  -10.7301   -4.9247 O   0  0  0  0  0  0  0  0  0  0  0  0
  2  1  1  6
  2  4  1  0
  3  2  1  0
  4  5  1  1
  4  6  1  0
  6 12  1  0
  7  6  2  0
  9  8  1  6
  9 10  1  0
 11  9  1  0
 11 12  1  6
 13 11  1  0
 13 14  2  0
 16 15  1  0
 16 17  2  0
 18 17  1  0
 19 18  2  0
 20 19  1  0
 21 20  1  1
 21 22  1  0
 22 13  1  0
 23 24  1  0
 23 21  1  0
 25 26  2  0
 25 19  1  0
 26 16  1  0
 27 23  2  0
M  END
$$$$
