TTY.pdb
     RDKit          3D

 27 27  0  0  1  0  0  0  0  0999 V2000
   25.7301  -14.5415  -17.5158 C   0  0  0  0  0  0  0  0  0  0  0  0
   25.0020  -13.2598  -17.8013 C   0  0  1  0  0  0  0  0  0  0  0  0
   24.2637  -13.3537  -18.9683 O   0  0  0  0  0  0  0  0  0  0  0  0
   24.1847  -12.7623  -16.6473 C   0  0  2  0  0  0  0  0  0  0  0  0
   23.2443  -13.7598  -16.2319 N   0  0  0  0  0  0  0  0  0  0  0  0
   23.5707  -11.4424  -16.8726 C   0  0  0  0  0  0  0  0  0  0  0  0
   24.3156  -10.4515  -17.0849 O   0  0  0  0  0  0  0  0  0  0  0  0
   20.8737  -10.5581  -19.4220 C   0  0  0  0  0  0  0  0  0  0  0  0
   20.4095  -10.0112  -18.0888 C   0  0  1  0  0  0  0  0  0  0  0  0
   19.4519  -10.9097  -17.5956 O   0  0  0  0  0  0  0  0  0  0  0  0
   21.5795   -9.9181  -17.1437 C   0  0  2  0  0  0  0  0  0  0  0  0
   22.1606  -11.2107  -16.8653 N   0  0  0  0  0  0  0  0  0  0  0  0
   21.2386   -9.2537  -15.8727 C   0  0  0  0  0  0  0  0  0  0  0  0
   21.2930   -9.9535  -14.8367 O   0  0  0  0  0  0  0  0  0  0  0  0
   25.7419   -3.8868  -16.3973 O   0  0  0  0  0  0  0  0  0  0  0  0
   24.8055   -4.6778  -15.7340 C   0  0  0  0  0  0  0  0  0  0  0  0
   23.7542   -4.1138  -15.0427 C   0  0  0  0  0  0  0  0  0  0  0  0
   22.8178   -4.8652  -14.3808 C   0  0  0  0  0  0  0  0  0  0  0  0
   22.8922   -6.2391  -14.3806 C   0  0  0  0  0  0  0  0  0  0  0  0
   21.9110   -7.1068  -13.6855 C   0  0  0  0  0  0  0  0  0  0  0  0
   20.6791   -7.1830  -14.5463 C   0  0  2  0  0  0  0  0  0  0  0  0
   20.8598   -7.8883  -15.7677 N   0  0  0  0  0  0  0  0  0  0  0  0
   20.0570   -5.8619  -14.7945 C   0  0  0  0  0  0  0  0  0  0  0  0
   19.6477   -4.9967  -13.7963 O   0  0  0  0  0  0  0  0  0  0  0  0
   23.9297   -6.8190  -15.0620 C   0  0  0  0  0  0  0  0  0  0  0  0
   24.8838   -6.0485  -15.7365 C   0  0  0  0  0  0  0  0  0  0  0  0
   19.8761   -5.4749  -15.9846 O   0  0  0  0  0  0  0  0  0  0  0  0
  2  1  1  1
  2  4  1  0
  3  2  1  0
  4  5  1  6
  4  6  1  0
  6 12  1  0
  7  6  2  0
  9  8  1  6
  9 10  1  0
 11  9  1  0
 11 12  1  1
 13 11  1  0
 13 14  2  0
 16 15  1  0
 16 17  2  0
 18 17  1  0
 19 18  2  0
 20 19  1  0
 21 20  1  6
 21 22  1  0
 22 13  1  0
 23 24  1  0
 23 21  1  0
 25 26  2  0
 25 19  1  0
 26 16  1  0
 27 23  2  0
M  END
$$$$
