TTY.pdb
     RDKit          3D

 27 27  0  0  1  0  0  0  0  0999 V2000
   25.1503  -11.7673  -15.8553 C   0  0  0  0  0  0  0  0  0  0  0  0
   24.7150  -12.4672  -17.1105 C   0  0  1  0  0  0  0  0  0  0  0  0
   25.2889  -13.7229  -17.2071 O   0  0  0  0  0  0  0  0  0  0  0  0
   23.2277  -12.5036  -17.2941 C   0  0  2  0  0  0  0  0  0  0  0  0
   22.8809  -13.3240  -18.4160 N   0  0  0  0  0  0  0  0  0  0  0  0
   22.5954  -11.1736  -17.3288 C   0  0  0  0  0  0  0  0  0  0  0  0
   22.7418  -10.4552  -18.3506 O   0  0  0  0  0  0  0  0  0  0  0  0
   19.0654  -10.2809  -17.0906 C   0  0  0  0  0  0  0  0  0  0  0  0
   19.7215   -9.3772  -16.0684 C   0  0  1  0  0  0  0  0  0  0  0  0
   19.4519   -9.9310  -14.8082 O   0  0  0  0  0  0  0  0  0  0  0  0
   21.2074   -9.3280  -16.3145 C   0  0  2  0  0  0  0  0  0  0  0  0
   21.8135  -10.6377  -16.2593 N   0  0  0  0  0  0  0  0  0  0  0  0
   21.9129   -8.4256  -15.3865 C   0  0  0  0  0  0  0  0  0  0  0  0
   22.9381   -8.8772  -14.8289 O   0  0  0  0  0  0  0  0  0  0  0  0
   23.2592   -3.0606  -19.7785 O   0  0  0  0  0  0  0  0  0  0  0  0
   23.3545   -3.7638  -18.5790 C   0  0  0  0  0  0  0  0  0  0  0  0
   23.1672   -3.1366  -17.3653 C   0  0  0  0  0  0  0  0  0  0  0  0
   23.2545   -3.8012  -16.1694 C   0  0  0  0  0  0  0  0  0  0  0  0
   23.5381   -5.1471  -16.1330 C   0  0  0  0  0  0  0  0  0  0  0  0
   23.6447   -5.9221  -14.8733 C   0  0  0  0  0  0  0  0  0  0  0  0
   22.2494   -6.1481  -14.3571 C   0  0  2  0  0  0  0  0  0  0  0  0
   21.4959   -7.0978  -15.1001 N   0  0  0  0  0  0  0  0  0  0  0  0
   21.4805   -4.8941  -14.1829 C   0  0  0  0  0  0  0  0  0  0  0  0
   21.8606   -3.8602  -13.3467 O   0  0  0  0  0  0  0  0  0  0  0  0
   23.7276   -5.7888  -17.3284 C   0  0  0  0  0  0  0  0  0  0  0  0
   23.6377   -5.1068  -18.5474 C   0  0  0  0  0  0  0  0  0  0  0  0
   20.4045   -4.7315  -14.8266 O   0  0  0  0  0  0  0  0  0  0  0  0
  2  1  1  1
  2  4  1  0
  3  2  1  0
  4  5  1  6
  4  6  1  0
  6 12  1  0
  7  6  2  0
  9  8  1  6
  9 10  1  0
 11  9  1  0
 11 12  1  1
 13 11  1  0
 13 14  2  0
 16 15  1  0
 16 17  2  0
 18 17  1  0
 19 18  2  0
 20 19  1  0
 21 20  1  6
 21 22  1  0
 22 13  1  0
 23 24  1  0
 23 21  1  0
 25 26  2  0
 25 19  1  0
 26 16  1  0
 27 23  2  0
M  END
$$$$
