TTY.pdb
     RDKit          3D

 27 27  0  0  1  0  0  0  0  0999 V2000
   23.6663  -15.8104  -17.9898 C   0  0  0  0  0  0  0  0  0  0  0  0
   23.7754  -17.0958  -17.2212 C   0  0  1  0  0  0  0  0  0  0  0  0
   22.5257  -17.5747  -16.8685 O   0  0  0  0  0  0  0  0  0  0  0  0
   24.6135  -18.1350  -17.9028 C   0  0  2  0  0  0  0  0  0  0  0  0
   24.0550  -18.4723  -19.1781 N   0  0  0  0  0  0  0  0  0  0  0  0
   24.9062  -19.3119  -17.0667 C   0  0  0  0  0  0  0  0  0  0  0  0
   24.1388  -20.3066  -17.1238 O   0  0  0  0  0  0  0  0  0  0  0  0
   27.3297  -21.7342  -17.2757 C   0  0  0  0  0  0  0  0  0  0  0  0
   27.5081  -21.3160  -15.8317 C   0  0  1  0  0  0  0  0  0  0  0  0
   28.6405  -20.4893  -15.7881 O   0  0  0  0  0  0  0  0  0  0  0  0
   26.2885  -20.5625  -15.3675 C   0  0  2  0  0  0  0  0  0  0  0  0
   26.0239  -19.3984  -16.1803 N   0  0  0  0  0  0  0  0  0  0  0  0
   26.3674  -20.1599  -13.9515 C   0  0  0  0  0  0  0  0  0  0  0  0
   26.6113  -18.9547  -13.7194 O   0  0  0  0  0  0  0  0  0  0  0  0
   20.0014  -20.8607  -11.7770 O   0  0  0  0  0  0  0  0  0  0  0  0
   21.3442  -20.5252  -11.6132 C   0  0  0  0  0  0  0  0  0  0  0  0
   21.8548  -20.2026  -10.3736 C   0  0  0  0  0  0  0  0  0  0  0  0
   23.1705  -19.8686  -10.1811 C   0  0  0  0  0  0  0  0  0  0  0  0
   24.0502  -19.8416  -11.2387 C   0  0  0  0  0  0  0  0  0  0  0  0
   25.4836  -19.4899  -11.0956 C   0  0  0  0  0  0  0  0  0  0  0  0
   26.2912  -20.6973  -11.4887 C   0  0  2  0  0  0  0  0  0  0  0  0
   26.1844  -21.0526  -12.8614 N   0  0  0  0  0  0  0  0  0  0  0  0
   26.0412  -21.8742  -10.6248 C   0  0  0  0  0  0  0  0  0  0  0  0
   26.0772  -21.8442   -9.2426 O   0  0  0  0  0  0  0  0  0  0  0  0
   23.5624  -20.1592  -12.4788 C   0  0  0  0  0  0  0  0  0  0  0  0
   22.2185  -20.4997  -12.6714 C   0  0  0  0  0  0  0  0  0  0  0  0
   25.7760  -22.9899  -11.1574 O   0  0  0  0  0  0  0  0  0  0  0  0
  2  1  1  6
  2  4  1  0
  3  2  1  0
  4  5  1  6
  4  6  1  0
  6 12  1  0
  7  6  2  0
  9  8  1  6
  9 10  1  0
 11  9  1  0
 11 12  1  6
 13 11  1  0
 13 14  2  0
 16 15  1  0
 16 17  2  0
 18 17  1  0
 19 18  2  0
 20 19  1  0
 21 20  1  1
 21 22  1  0
 22 13  1  0
 23 24  1  0
 23 21  1  0
 25 26  2  0
 25 19  1  0
 26 16  1  0
 27 23  2  0
M  END
$$$$
