TTY.pdb
     RDKit          3D

 27 27  0  0  1  0  0  0  0  0999 V2000
   29.8455  -30.4782  -18.4885 C   0  0  0  0  0  0  0  0  0  0  0  0
   31.0381  -31.2737  -18.0418 C   0  0  1  0  0  0  0  0  0  0  0  0
   32.2173  -30.6023  -18.3143 O   0  0  0  0  0  0  0  0  0  0  0  0
   30.9573  -31.7298  -16.6161 C   0  0  2  0  0  0  0  0  0  0  0  0
   32.0840  -32.5513  -16.2877 N   0  0  0  0  0  0  0  0  0  0  0  0
   29.6669  -32.3415  -16.2548 C   0  0  0  0  0  0  0  0  0  0  0  0
   29.4099  -33.5052  -16.6564 O   0  0  0  0  0  0  0  0  0  0  0  0
   25.8145  -32.6771  -13.2222 C   0  0  0  0  0  0  0  0  0  0  0  0
   27.1748  -32.1123  -13.5721 C   0  0  1  0  0  0  0  0  0  0  0  0
   28.1100  -32.7904  -12.7764 O   0  0  0  0  0  0  0  0  0  0  0  0
   27.4601  -32.3452  -15.0333 C   0  0  2  0  0  0  0  0  0  0  0  0
   28.6716  -31.6878  -15.4645 N   0  0  0  0  0  0  0  0  0  0  0  0
   26.3462  -31.9355  -15.9076 C   0  0  0  0  0  0  0  0  0  0  0  0
   26.2431  -30.7134  -16.1566 O   0  0  0  0  0  0  0  0  0  0  0  0
   20.3652  -37.0806  -15.6922 O   0  0  0  0  0  0  0  0  0  0  0  0
   21.2507  -36.2205  -16.3392 C   0  0  0  0  0  0  0  0  0  0  0  0
   20.8360  -34.9968  -16.8208 C   0  0  0  0  0  0  0  0  0  0  0  0
   21.6831  -34.1297  -17.4611 C   0  0  0  0  0  0  0  0  0  0  0  0
   23.0067  -34.4534  -17.6521 C   0  0  0  0  0  0  0  0  0  0  0  0
   23.9724  -33.5592  -18.3353 C   0  0  0  0  0  0  0  0  0  0  0  0
   24.3594  -32.4777  -17.3632 C   0  0  2  0  0  0  0  0  0  0  0  0
   25.4046  -32.8391  -16.4694 N   0  0  0  0  0  0  0  0  0  0  0  0
   23.2061  -31.9212  -16.6186 C   0  0  0  0  0  0  0  0  0  0  0  0
   22.2393  -31.1073  -17.1802 O   0  0  0  0  0  0  0  0  0  0  0  0
   23.4385  -35.6651  -17.1808 C   0  0  0  0  0  0  0  0  0  0  0  0
   22.5707  -36.5477  -16.5275 C   0  0  0  0  0  0  0  0  0  0  0  0
   23.0720  -32.1904  -15.3905 O   0  0  0  0  0  0  0  0  0  0  0  0
  2  1  1  1
  2  4  1  0
  3  2  1  0
  4  5  1  6
  4  6  1  0
  6 12  1  0
  7  6  2  0
  9  8  1  1
  9 10  1  0
 11  9  1  0
 11 12  1  6
 13 11  1  0
 13 14  2  0
 16 15  1  0
 16 17  2  0
 18 17  1  0
 19 18  2  0
 20 19  1  0
 21 20  1  1
 21 22  1  0
 22 13  1  0
 23 24  1  0
 23 21  1  0
 25 26  2  0
 25 19  1  0
 26 16  1  0
 27 23  2  0
M  END
$$$$
