TTY.pdb
     RDKit          3D

 27 27  0  0  1  0  0  0  0  0999 V2000
   25.6245  -13.9543  -15.9124 C   0  0  0  0  0  0  0  0  0  0  0  0
   26.1931  -14.1461  -17.2889 C   0  0  1  0  0  0  0  0  0  0  0  0
   26.6655  -15.4358  -17.4591 O   0  0  0  0  0  0  0  0  0  0  0  0
   25.2623  -13.7295  -18.3876 C   0  0  2  0  0  0  0  0  0  0  0  0
   25.8582  -13.9701  -19.6679 N   0  0  0  0  0  0  0  0  0  0  0  0
   24.7346  -12.3622  -18.2398 C   0  0  0  0  0  0  0  0  0  0  0  0
   25.4988  -11.3869  -18.4554 O   0  0  0  0  0  0  0  0  0  0  0  0
   20.7060  -11.2504  -18.7854 C   0  0  0  0  0  0  0  0  0  0  0  0
   21.9364  -10.3726  -18.8720 C   0  0  1  0  0  0  0  0  0  0  0  0
   21.4955   -9.0467  -18.7488 O   0  0  0  0  0  0  0  0  0  0  0  0
   22.8852  -10.7176  -17.7532 C   0  0  2  0  0  0  0  0  0  0  0  0
   23.3886  -12.0669  -17.8609 N   0  0  0  0  0  0  0  0  0  0  0  0
   22.2916  -10.5245  -16.4177 C   0  0  0  0  0  0  0  0  0  0  0  0
   21.7801  -11.5299  -15.8758 O   0  0  0  0  0  0  0  0  0  0  0  0
   22.7981   -2.9145  -15.3073 O   0  0  0  0  0  0  0  0  0  0  0  0
   22.7689   -4.2357  -14.8646 C   0  0  0  0  0  0  0  0  0  0  0  0
   23.5685   -5.2006  -15.4399 C   0  0  0  0  0  0  0  0  0  0  0  0
   23.5620   -6.5078  -15.0265 C   0  0  0  0  0  0  0  0  0  0  0  0
   22.7406   -6.9159  -14.0008 C   0  0  0  0  0  0  0  0  0  0  0  0
   22.6883   -8.3133  -13.5075 C   0  0  0  0  0  0  0  0  0  0  0  0
   21.7680   -9.0835  -14.4153 C   0  0  2  0  0  0  0  0  0  0  0  0
   22.2718   -9.2812  -15.7303 N   0  0  0  0  0  0  0  0  0  0  0  0
   20.3947   -8.5304  -14.4611 C   0  0  0  0  0  0  0  0  0  0  0  0
   19.5433   -8.4754  -13.3726 O   0  0  0  0  0  0  0  0  0  0  0  0
   21.9382   -5.9720  -13.4159 C   0  0  0  0  0  0  0  0  0  0  0  0
   21.9477   -4.6384  -13.8408 C   0  0  0  0  0  0  0  0  0  0  0  0
   19.9459   -8.0730  -15.5510 O   0  0  0  0  0  0  0  0  0  0  0  0
  2  1  1  1
  2  4  1  0
  3  2  1  0
  4  5  1  6
  4  6  1  0
  6 12  1  0
  7  6  2  0
  9  8  1  1
  9 10  1  0
 11  9  1  0
 11 12  1  6
 13 11  1  0
 13 14  2  0
 16 15  1  0
 16 17  2  0
 18 17  1  0
 19 18  2  0
 20 19  1  0
 21 20  1  1
 21 22  1  0
 22 13  1  0
 23 24  1  0
 23 21  1  0
 25 26  2  0
 25 19  1  0
 26 16  1  0
 27 23  2  0
M  END
$$$$
