TTY.pdb
     RDKit          3D

 27 27  0  0  1  0  0  0  0  0999 V2000
   25.9961  -14.9730  -15.4540 C   0  0  0  0  0  0  0  0  0  0  0  0
   25.3182  -13.8540  -16.1909 C   0  0  1  0  0  0  0  0  0  0  0  0
   26.2241  -13.1355  -16.9515 O   0  0  0  0  0  0  0  0  0  0  0  0
   24.1262  -14.2932  -16.9867 C   0  0  2  0  0  0  0  0  0  0  0  0
   24.5081  -15.2658  -17.9667 N   0  0  0  0  0  0  0  0  0  0  0  0
   23.3372  -13.1824  -17.5468 C   0  0  0  0  0  0  0  0  0  0  0  0
   23.5441  -12.8258  -18.7350 O   0  0  0  0  0  0  0  0  0  0  0  0
   19.6262  -12.7029  -17.9500 C   0  0  0  0  0  0  0  0  0  0  0  0
   20.1212  -11.4921  -17.1878 C   0  0  1  0  0  0  0  0  0  0  0  0
   19.8112  -11.7111  -15.8374 O   0  0  0  0  0  0  0  0  0  0  0  0
   21.6105  -11.3524  -17.3697 C   0  0  2  0  0  0  0  0  0  0  0  0
   22.3356  -12.4719  -16.8159 N   0  0  0  0  0  0  0  0  0  0  0  0
   22.1425  -10.0996  -16.8032 C   0  0  0  0  0  0  0  0  0  0  0  0
   22.8686  -10.2014  -15.7891 O   0  0  0  0  0  0  0  0  0  0  0  0
   23.8064   -1.5531  -15.6356 O   0  0  0  0  0  0  0  0  0  0  0  0
   23.6387   -2.8260  -16.1778 C   0  0  0  0  0  0  0  0  0  0  0  0
   24.5682   -3.8221  -15.9653 C   0  0  0  0  0  0  0  0  0  0  0  0
   24.4310   -5.0833  -16.4851 C   0  0  0  0  0  0  0  0  0  0  0  0
   23.3384   -5.4107  -17.2547 C   0  0  0  0  0  0  0  0  0  0  0  0
   23.1320   -6.7558  -17.8438 C   0  0  0  0  0  0  0  0  0  0  0  0
   22.3999   -7.5910  -16.8286 C   0  0  2  0  0  0  0  0  0  0  0  0
   21.8777   -8.8109  -17.3396 N   0  0  0  0  0  0  0  0  0  0  0  0
   21.3515   -6.8398  -16.1003 C   0  0  0  0  0  0  0  0  0  0  0  0
   21.5754   -6.1218  -14.9397 O   0  0  0  0  0  0  0  0  0  0  0  0
   22.4032   -4.4347  -17.4776 C   0  0  0  0  0  0  0  0  0  0  0  0
   22.5468   -3.1483  -16.9452 C   0  0  0  0  0  0  0  0  0  0  0  0
   20.1678   -6.8374  -16.5447 O   0  0  0  0  0  0  0  0  0  0  0  0
  2  1  1  6
  2  4  1  0
  3  2  1  0
  4  5  1  6
  4  6  1  0
  6 12  1  0
  7  6  2  0
  9  8  1  6
  9 10  1  0
 11  9  1  0
 11 12  1  1
 13 11  1  0
 13 14  2  0
 16 15  1  0
 16 17  2  0
 18 17  1  0
 19 18  2  0
 20 19  1  0
 21 20  1  6
 21 22  1  0
 22 13  1  0
 23 24  1  0
 23 21  1  0
 25 26  2  0
 25 19  1  0
 26 16  1  0
 27 23  2  0
M  END
$$$$
