TTY.pdb
     RDKit          3D

 27 27  0  0  1  0  0  0  0  0999 V2000
   23.1426   -8.1023  -22.3522 C   0  0  0  0  0  0  0  0  0  0  0  0
   22.7628   -7.8513  -20.9213 C   0  0  1  0  0  0  0  0  0  0  0  0
   23.0737   -6.5574  -20.5413 O   0  0  0  0  0  0  0  0  0  0  0  0
   21.3436   -8.2143  -20.6032 C   0  0  2  0  0  0  0  0  0  0  0  0
   20.4427   -7.5398  -21.4896 N   0  0  0  0  0  0  0  0  0  0  0  0
   20.9885   -8.0561  -19.1824 C   0  0  0  0  0  0  0  0  0  0  0  0
   20.3421   -7.0382  -18.8250 O   0  0  0  0  0  0  0  0  0  0  0  0
   20.6175   -9.8920  -14.5834 C   0  0  0  0  0  0  0  0  0  0  0  0
   20.7788  -10.1350  -16.0689 C   0  0  1  0  0  0  0  0  0  0  0  0
   19.5983  -10.7530  -16.5071 O   0  0  0  0  0  0  0  0  0  0  0  0
   20.9795   -8.8210  -16.7789 C   0  0  2  0  0  0  0  0  0  0  0  0
   21.3367   -8.9994  -18.1668 N   0  0  0  0  0  0  0  0  0  0  0  0
   21.9835   -7.9629  -16.1242 C   0  0  0  0  0  0  0  0  0  0  0  0
   23.1366   -7.9700  -16.6106 O   0  0  0  0  0  0  0  0  0  0  0  0
   18.4586   -1.8135  -16.2932 O   0  0  0  0  0  0  0  0  0  0  0  0
   19.5745   -2.6194  -16.0747 C   0  0  0  0  0  0  0  0  0  0  0  0
   20.4053   -2.4128  -14.9938 C   0  0  0  0  0  0  0  0  0  0  0  0
   21.5098   -3.1884  -14.7525 C   0  0  0  0  0  0  0  0  0  0  0  0
   21.8387   -4.2240  -15.5966 C   0  0  0  0  0  0  0  0  0  0  0  0
   23.0181   -5.0988  -15.3898 C   0  0  0  0  0  0  0  0  0  0  0  0
   22.6130   -6.1939  -14.4406 C   0  0  2  0  0  0  0  0  0  0  0  0
   21.7133   -7.1461  -14.9935 N   0  0  0  0  0  0  0  0  0  0  0  0
   22.1036   -5.6862  -13.1457 C   0  0  0  0  0  0  0  0  0  0  0  0
   20.8691   -6.0135  -12.6150 O   0  0  0  0  0  0  0  0  0  0  0  0
   21.0256   -4.4458  -16.6766 C   0  0  0  0  0  0  0  0  0  0  0  0
   19.8988   -3.6517  -16.9197 C   0  0  0  0  0  0  0  0  0  0  0  0
   22.8213   -4.9022  -12.4609 O   0  0  0  0  0  0  0  0  0  0  0  0
  2  1  1  6
  2  4  1  0
  3  2  1  0
  4  5  1  6
  4  6  1  0
  6 12  1  0
  7  6  2  0
  9  8  1  1
  9 10  1  0
 11  9  1  0
 11 12  1  6
 13 11  1  0
 13 14  2  0
 16 15  1  0
 16 17  2  0
 18 17  1  0
 19 18  2  0
 20 19  1  0
 21 20  1  6
 21 22  1  0
 22 13  1  0
 23 24  1  0
 23 21  1  0
 25 26  2  0
 25 19  1  0
 26 16  1  0
 27 23  2  0
M  END
$$$$
