FEK.pdb
     RDKit          3D

 30 30  0  0  1  0  0  0  0  0999 V2000
    6.1054  -17.0804   25.2898 N   0  0  0  0  0  0  0  0  0  0  0  0
    6.4830  -16.9313   23.9131 C   0  0  1  0  0  0  0  0  0  0  0  0
    6.2526  -15.5191   23.4080 C   0  0  0  0  0  0  0  0  0  0  0  0
    6.8255  -14.6040   24.4388 C   0  0  0  0  0  0  0  0  0  0  0  0
    8.0802  -14.0747   24.2975 C   0  0  0  0  0  0  0  0  0  0  0  0
    8.5916  -13.2285   25.2636 C   0  0  0  0  0  0  0  0  0  0  0  0
    7.8286  -12.9307   26.3559 C   0  0  0  0  0  0  0  0  0  0  0  0
    6.5756  -13.4459   26.5190 C   0  0  0  0  0  0  0  0  0  0  0  0
    6.0674  -14.2924   25.5498 C   0  0  0  0  0  0  0  0  0  0  0  0
    7.8888  -17.3471   23.7445 C   0  0  0  0  0  0  0  0  0  0  0  0
    8.4294  -18.0774   24.6347 O   0  0  0  0  0  0  0  0  0  0  0  0
    8.6048  -16.9263   22.5992 N   0  0  0  0  0  0  0  0  0  0  0  0
    9.8920  -17.6239   22.3178 C   0  0  1  0  0  0  0  0  0  0  0  0
   10.3604  -17.1138   20.9748 C   0  0  0  0  0  0  0  0  0  0  0  0
   11.5922  -17.7123   20.4263 C   0  0  0  0  0  0  0  0  0  0  0  0
   11.9169  -17.2266   19.0907 C   0  0  0  0  0  0  0  0  0  0  0  0
   13.0590  -17.3551   18.6053 O   0  0  0  0  0  0  0  0  0  0  0  0
   10.8578  -17.2371   23.3767 C   0  0  0  0  0  0  0  0  0  0  0  0
   12.0418  -17.7327   23.3182 O   0  0  0  0  0  0  0  0  0  0  0  0
   10.9384  -16.6056   18.3351 O   0  0  0  0  0  0  0  0  0  0  0  0
   10.6127  -16.3684   24.4506 N   0  0  0  0  0  0  0  0  0  0  0  0
   11.5996  -16.2032   25.5413 C   0  0  1  0  0  0  0  0  0  0  0  0
   10.9208  -15.7209   26.7794 C   0  0  0  0  0  0  0  0  0  0  0  0
   11.7798  -15.6530   28.0068 C   0  0  0  0  0  0  0  0  0  0  0  0
   10.8977  -15.1248   29.1529 C   0  0  0  0  0  0  0  0  0  0  0  0
   11.7053  -15.0592   30.4379 C   0  0  0  0  0  0  0  0  0  0  0  0
   10.7846  -14.5266   31.4509 N   0  0  0  0  0  0  0  0  0  0  0  0
   12.2800  -17.4906   25.7540 C   0  0  0  0  0  0  0  0  0  0  0  0
   11.6154  -18.5566   25.9821 O   0  0  0  0  0  0  0  0  0  0  0  0
   13.6549  -17.6622   25.7267 O   0  0  0  0  0  0  0  0  0  0  0  0
  2 10  1  0
  2  1  1  1
  3  2  1  0
  4  3  1  0
  4  9  2  0
  5  4  1  0
  6  5  2  0
  6  7  1  0
  7  8  2  0
  8  9  1  0
 10 11  2  0
 12 13  1  0
 12 10  1  0
 13 14  1  6
 14 15  1  0
 15 16  1  0
 16 20  1  0
 17 16  2  0
 18 13  1  0
 19 18  2  0
 21 18  1  0
 22 23  1  1
 22 21  1  0
 24 25  1  0
 24 23  1  0
 25 26  1  0
 26 27  1  0
 28 22  1  0
 28 30  1  0
 29 28  2  0
M  END
$$$$
