FEK.pdb
     RDKit          3D

 30 30  0  0  1  0  0  0  0  0999 V2000
    5.8237  -17.6710   24.2806 N   0  0  0  0  0  0  0  0  0  0  0  0
    6.6034  -16.4887   24.5137 C   0  0  1  0  0  0  0  0  0  0  0  0
    6.4351  -15.9637   25.9274 C   0  0  0  0  0  0  0  0  0  0  0  0
    7.0899  -14.6227   25.9598 C   0  0  0  0  0  0  0  0  0  0  0  0
    8.2053  -14.3971   26.7210 C   0  0  0  0  0  0  0  0  0  0  0  0
    8.7968  -13.1478   26.7361 C   0  0  0  0  0  0  0  0  0  0  0  0
    8.2530  -12.1471   25.9831 C   0  0  0  0  0  0  0  0  0  0  0  0
    7.1419  -12.3476   25.2167 C   0  0  0  0  0  0  0  0  0  0  0  0
    6.5530  -13.5995   25.2043 C   0  0  0  0  0  0  0  0  0  0  0  0
    8.0185  -16.7676   24.2015 C   0  0  0  0  0  0  0  0  0  0  0  0
    8.5852  -17.7710   24.7402 O   0  0  0  0  0  0  0  0  0  0  0  0
    8.7142  -15.9157   23.3119 N   0  0  0  0  0  0  0  0  0  0  0  0
   10.0885  -16.3365   22.9155 C   0  0  1  0  0  0  0  0  0  0  0  0
   10.3463  -15.7083   21.5655 C   0  0  0  0  0  0  0  0  0  0  0  0
   11.6787  -15.9272   20.9712 C   0  0  0  0  0  0  0  0  0  0  0  0
   11.7853  -15.4221   19.6078 C   0  0  0  0  0  0  0  0  0  0  0  0
   12.2854  -14.3067   19.3585 O   0  0  0  0  0  0  0  0  0  0  0  0
   11.0362  -15.7940   23.9211 C   0  0  0  0  0  0  0  0  0  0  0  0
   10.6060  -14.8855   24.7213 O   0  0  0  0  0  0  0  0  0  0  0  0
   11.3219  -16.1939   18.5573 O   0  0  0  0  0  0  0  0  0  0  0  0
   12.3737  -16.1785   24.0975 N   0  0  0  0  0  0  0  0  0  0  0  0
   12.9623  -16.3014   25.4500 C   0  0  1  0  0  0  0  0  0  0  0  0
   12.1119  -17.1829   26.3020 C   0  0  0  0  0  0  0  0  0  0  0  0
   12.6430  -17.4674   27.6754 C   0  0  0  0  0  0  0  0  0  0  0  0
   11.6389  -18.4071   28.3677 C   0  0  0  0  0  0  0  0  0  0  0  0
   12.1063  -18.7115   29.7807 C   0  0  0  0  0  0  0  0  0  0  0  0
   11.0490  -19.5430   30.3710 N   0  0  0  0  0  0  0  0  0  0  0  0
   14.3323  -16.8219   25.3172 C   0  0  0  0  0  0  0  0  0  0  0  0
   14.5790  -17.8515   24.6036 O   0  0  0  0  0  0  0  0  0  0  0  0
   15.4434  -16.2644   25.9298 O   0  0  0  0  0  0  0  0  0  0  0  0
  2 10  1  0
  2  1  1  1
  3  2  1  0
  4  3  1  0
  4  9  2  0
  5  4  1  0
  6  5  2  0
  6  7  1  0
  7  8  2  0
  8  9  1  0
 10 11  2  0
 12 13  1  0
 12 10  1  0
 13 14  1  6
 14 15  1  0
 15 16  1  0
 16 20  1  0
 17 16  2  0
 18 13  1  0
 19 18  2  0
 21 18  1  0
 22 23  1  1
 22 21  1  0
 24 25  1  0
 24 23  1  0
 25 26  1  0
 26 27  1  0
 28 22  1  0
 28 30  1  0
 29 28  2  0
M  END
$$$$
