FEK.pdb
     RDKit          3D

 30 30  0  0  1  0  0  0  0  0999 V2000
    6.3651  -16.1802   22.6756 N   0  0  0  0  0  0  0  0  0  0  0  0
    7.2692  -15.6956   23.6797 C   0  0  1  0  0  0  0  0  0  0  0  0
    6.5743  -15.4612   25.0080 C   0  0  0  0  0  0  0  0  0  0  0  0
    6.7566  -14.0151   25.3298 C   0  0  0  0  0  0  0  0  0  0  0  0
    6.3362  -13.4969   26.5253 C   0  0  0  0  0  0  0  0  0  0  0  0
    6.5154  -12.1548   26.8038 C   0  0  0  0  0  0  0  0  0  0  0  0
    7.1156  -11.3581   25.8714 C   0  0  0  0  0  0  0  0  0  0  0  0
    7.5428  -11.8515   24.6729 C   0  0  0  0  0  0  0  0  0  0  0  0
    7.3616  -13.1953   24.3982 C   0  0  0  0  0  0  0  0  0  0  0  0
    8.3986  -16.6358   23.8146 C   0  0  0  0  0  0  0  0  0  0  0  0
    8.1700  -17.8272   24.1972 O   0  0  0  0  0  0  0  0  0  0  0  0
    9.7090  -16.1942   23.5164 N   0  0  0  0  0  0  0  0  0  0  0  0
   10.7944  -17.2138   23.5892 C   0  0  1  0  0  0  0  0  0  0  0  0
   11.9708  -16.6278   22.8435 C   0  0  0  0  0  0  0  0  0  0  0  0
   13.2368  -17.3834   22.8948 C   0  0  0  0  0  0  0  0  0  0  0  0
   14.2748  -16.8163   22.0426 C   0  0  0  0  0  0  0  0  0  0  0  0
   14.3787  -17.1282   20.8391 O   0  0  0  0  0  0  0  0  0  0  0  0
   11.1403  -17.4058   25.0200 C   0  0  0  0  0  0  0  0  0  0  0  0
   11.3471  -16.3570   25.7327 O   0  0  0  0  0  0  0  0  0  0  0  0
   15.1721  -15.9077   22.5748 O   0  0  0  0  0  0  0  0  0  0  0  0
   11.2624  -18.6323   25.6899 N   0  0  0  0  0  0  0  0  0  0  0  0
   11.7186  -18.6933   27.0967 C   0  0  1  0  0  0  0  0  0  0  0  0
   11.0529  -19.8259   27.8039 C   0  0  0  0  0  0  0  0  0  0  0  0
   11.5269  -20.0871   29.2025 C   0  0  0  0  0  0  0  0  0  0  0  0
   10.7522  -21.3102   29.7263 C   0  0  0  0  0  0  0  0  0  0  0  0
   11.1077  -21.5620   31.1816 C   0  0  0  0  0  0  0  0  0  0  0  0
   10.2942  -22.7155   31.5883 N   0  0  0  0  0  0  0  0  0  0  0  0
   13.1842  -18.8252   27.1067 C   0  0  0  0  0  0  0  0  0  0  0  0
   13.8867  -18.2936   28.0308 O   0  0  0  0  0  0  0  0  0  0  0  0
   13.9138  -19.5142   26.1508 O   0  0  0  0  0  0  0  0  0  0  0  0
  2 10  1  0
  2  1  1  6
  3  2  1  0
  4  3  1  0
  4  9  2  0
  5  4  1  0
  6  5  2  0
  6  7  1  0
  7  8  2  0
  8  9  1  0
 10 11  2  0
 12 13  1  0
 12 10  1  0
 13 14  1  6
 14 15  1  0
 15 16  1  0
 16 20  1  0
 17 16  2  0
 18 13  1  0
 19 18  2  0
 21 18  1  0
 22 23  1  6
 22 21  1  0
 24 25  1  0
 24 23  1  0
 25 26  1  0
 26 27  1  0
 28 22  1  0
 28 30  1  0
 29 28  2  0
M  END
$$$$
