FEK.pdb
     RDKit          3D

 30 30  0  0  1  0  0  0  0  0999 V2000
    6.0924  -16.6430   24.1295 N   0  0  0  0  0  0  0  0  0  0  0  0
    7.2966  -15.9593   24.5073 C   0  0  1  0  0  0  0  0  0  0  0  0
    7.2048  -15.3710   25.9030 C   0  0  0  0  0  0  0  0  0  0  0  0
    6.9137  -13.9173   25.7293 C   0  0  0  0  0  0  0  0  0  0  0  0
    6.9654  -13.3270   24.4950 C   0  0  0  0  0  0  0  0  0  0  0  0
    6.6913  -11.9792   24.3560 C   0  0  0  0  0  0  0  0  0  0  0  0
    6.3698  -11.2498   25.4645 C   0  0  0  0  0  0  0  0  0  0  0  0
    6.3120  -11.8157   26.7049 C   0  0  0  0  0  0  0  0  0  0  0  0
    6.5869  -13.1649   26.8398 C   0  0  0  0  0  0  0  0  0  0  0  0
    8.4420  -16.8810   24.3793 C   0  0  0  0  0  0  0  0  0  0  0  0
    8.3091  -18.0894   24.7535 O   0  0  0  0  0  0  0  0  0  0  0  0
    9.6613  -16.4030   23.8444 N   0  0  0  0  0  0  0  0  0  0  0  0
   10.7550  -17.4009   23.6693 C   0  0  1  0  0  0  0  0  0  0  0  0
   11.6675  -16.8403   22.6032 C   0  0  0  0  0  0  0  0  0  0  0  0
   11.2497  -17.0283   21.2010 C   0  0  0  0  0  0  0  0  0  0  0  0
   12.1730  -16.4288   20.2452 C   0  0  0  0  0  0  0  0  0  0  0  0
   13.2395  -15.8940   20.6099 O   0  0  0  0  0  0  0  0  0  0  0  0
   11.4815  -17.5080   24.9594 C   0  0  0  0  0  0  0  0  0  0  0  0
   11.7973  -16.4179   25.5618 O   0  0  0  0  0  0  0  0  0  0  0  0
   11.8656  -16.4493   18.8965 O   0  0  0  0  0  0  0  0  0  0  0  0
   11.8620  -18.6938   25.6051 N   0  0  0  0  0  0  0  0  0  0  0  0
   12.5085  -18.6663   26.9363 C   0  0  1  0  0  0  0  0  0  0  0  0
   11.8914  -19.6909   27.8283 C   0  0  0  0  0  0  0  0  0  0  0  0
   12.5510  -19.8725   29.1628 C   0  0  0  0  0  0  0  0  0  0  0  0
   11.6982  -20.8756   29.9610 C   0  0  0  0  0  0  0  0  0  0  0  0
   12.3961  -21.2241   31.2645 C   0  0  0  0  0  0  0  0  0  0  0  0
   11.5401  -22.2287   31.9092 N   0  0  0  0  0  0  0  0  0  0  0  0
   13.9520  -18.8908   26.7587 C   0  0  0  0  0  0  0  0  0  0  0  0
   14.7926  -18.4928   27.6334 O   0  0  0  0  0  0  0  0  0  0  0  0
   14.5150  -19.5325   25.6670 O   0  0  0  0  0  0  0  0  0  0  0  0
  2 10  1  0
  2  1  1  1
  3  2  1  0
  4  3  1  0
  4  9  2  0
  5  4  1  0
  6  5  2  0
  6  7  1  0
  7  8  2  0
  8  9  1  0
 10 11  2  0
 12 13  1  0
 12 10  1  0
 13 14  1  6
 14 15  1  0
 15 16  1  0
 16 20  1  0
 17 16  2  0
 18 13  1  0
 19 18  2  0
 21 18  1  0
 22 23  1  1
 22 21  1  0
 24 25  1  0
 24 23  1  0
 25 26  1  0
 26 27  1  0
 28 22  1  0
 28 30  1  0
 29 28  2  0
M  END
$$$$
