FEK.pdb
     RDKit          3D

 30 30  0  0  1  0  0  0  0  0999 V2000
    6.2015  -16.9329   25.5822 N   0  0  0  0  0  0  0  0  0  0  0  0
    6.5401  -16.5990   24.2279 C   0  0  1  0  0  0  0  0  0  0  0  0
    6.1393  -15.1792   23.8729 C   0  0  0  0  0  0  0  0  0  0  0  0
    6.7154  -14.3010   24.9335 C   0  0  0  0  0  0  0  0  0  0  0  0
    6.0297  -14.0443   26.0905 C   0  0  0  0  0  0  0  0  0  0  0  0
    6.5818  -13.2287   27.0605 C   0  0  0  0  0  0  0  0  0  0  0  0
    7.8162  -12.6857   26.8469 C   0  0  0  0  0  0  0  0  0  0  0  0
    8.5186  -12.9268   25.7021 C   0  0  0  0  0  0  0  0  0  0  0  0
    7.9626  -13.7437   24.7337 C   0  0  0  0  0  0  0  0  0  0  0  0
    7.9825  -16.8269   24.0147 C   0  0  0  0  0  0  0  0  0  0  0  0
    8.6641  -17.3818   24.9342 O   0  0  0  0  0  0  0  0  0  0  0  0
    8.5762  -16.4245   22.7954 N   0  0  0  0  0  0  0  0  0  0  0  0
    9.9609  -16.9095   22.5302 C   0  0  1  0  0  0  0  0  0  0  0  0
   10.1997  -16.7082   21.0517 C   0  0  0  0  0  0  0  0  0  0  0  0
   10.8166  -17.8288   20.3169 C   0  0  0  0  0  0  0  0  0  0  0  0
   10.9585  -17.5661   18.8899 C   0  0  0  0  0  0  0  0  0  0  0  0
   12.0313  -17.1577   18.4013 O   0  0  0  0  0  0  0  0  0  0  0  0
   10.8948  -16.0667   23.3183 C   0  0  0  0  0  0  0  0  0  0  0  0
   10.4974  -14.8953   23.6657 O   0  0  0  0  0  0  0  0  0  0  0  0
    9.8797  -17.7726   18.0487 O   0  0  0  0  0  0  0  0  0  0  0  0
   12.1861  -16.4214   23.7362 N   0  0  0  0  0  0  0  0  0  0  0  0
   12.7649  -15.8713   24.9824 C   0  0  1  0  0  0  0  0  0  0  0  0
   11.8763  -16.1789   26.1409 C   0  0  0  0  0  0  0  0  0  0  0  0
   12.4252  -15.8282   27.4918 C   0  0  0  0  0  0  0  0  0  0  0  0
   11.3932  -16.2886   28.5376 C   0  0  0  0  0  0  0  0  0  0  0  0
   11.9233  -16.0252   29.9366 C   0  0  0  0  0  0  0  0  0  0  0  0
   10.8419  -16.4272   30.8459 N   0  0  0  0  0  0  0  0  0  0  0  0
   14.1128  -16.4347   25.1594 C   0  0  0  0  0  0  0  0  0  0  0  0
   14.4500  -17.5263   24.5895 O   0  0  0  0  0  0  0  0  0  0  0  0
   15.1073  -15.8553   25.9312 O   0  0  0  0  0  0  0  0  0  0  0  0
  2 10  1  0
  2  1  1  1
  3  2  1  0
  4  3  1  0
  4  9  2  0
  5  4  1  0
  6  5  2  0
  6  7  1  0
  7  8  2  0
  8  9  1  0
 10 11  2  0
 12 13  1  0
 12 10  1  0
 13 14  1  6
 14 15  1  0
 15 16  1  0
 16 20  1  0
 17 16  2  0
 18 13  1  0
 19 18  2  0
 21 18  1  0
 22 23  1  1
 22 21  1  0
 24 25  1  0
 24 23  1  0
 25 26  1  0
 26 27  1  0
 28 22  1  0
 28 30  1  0
 29 28  2  0
M  END
$$$$
