FEK.pdb
     RDKit          3D

 30 30  0  0  1  0  0  0  0  0999 V2000
    6.1398  -16.6674   25.2410 N   0  0  0  0  0  0  0  0  0  0  0  0
    7.2044  -15.9929   24.5541 C   0  0  1  0  0  0  0  0  0  0  0  0
    8.0021  -15.0941   25.4806 C   0  0  0  0  0  0  0  0  0  0  0  0
    7.2382  -13.8163   25.5891 C   0  0  0  0  0  0  0  0  0  0  0  0
    6.2218  -13.6733   26.4951 C   0  0  0  0  0  0  0  0  0  0  0  0
    5.5274  -12.4810   26.5799 C   0  0  0  0  0  0  0  0  0  0  0  0
    5.8702  -11.4531   25.7491 C   0  0  0  0  0  0  0  0  0  0  0  0
    6.8792  -11.5718   24.8381 C   0  0  0  0  0  0  0  0  0  0  0  0
    7.5717  -12.7668   24.7565 C   0  0  0  0  0  0  0  0  0  0  0  0
    8.0652  -16.9899   23.8887 C   0  0  0  0  0  0  0  0  0  0  0  0
    8.3514  -18.0676   24.5008 O   0  0  0  0  0  0  0  0  0  0  0  0
    8.5533  -16.7276   22.5871 N   0  0  0  0  0  0  0  0  0  0  0  0
    9.5616  -17.6814   22.0428 C   0  0  1  0  0  0  0  0  0  0  0  0
    9.5454  -17.4980   20.5429 C   0  0  0  0  0  0  0  0  0  0  0  0
    9.7021  -16.1210   20.0373 C   0  0  0  0  0  0  0  0  0  0  0  0
    9.6573  -16.0388   18.5825 C   0  0  0  0  0  0  0  0  0  0  0  0
   10.5090  -15.3972   17.9350 O   0  0  0  0  0  0  0  0  0  0  0  0
   10.8877  -17.3001   22.5901 C   0  0  0  0  0  0  0  0  0  0  0  0
   11.7486  -16.7971   21.7797 O   0  0  0  0  0  0  0  0  0  0  0  0
    8.6469  -16.6865   17.8944 O   0  0  0  0  0  0  0  0  0  0  0  0
   11.3066  -17.4276   23.9228 N   0  0  0  0  0  0  0  0  0  0  0  0
   12.4027  -16.5926   24.4633 C   0  0  1  0  0  0  0  0  0  0  0  0
   12.1446  -16.2715   25.8974 C   0  0  0  0  0  0  0  0  0  0  0  0
   12.2239  -17.4296   26.8469 C   0  0  0  0  0  0  0  0  0  0  0  0
   11.9490  -16.8818   28.2593 C   0  0  0  0  0  0  0  0  0  0  0  0
   12.0208  -18.0102   29.2738 C   0  0  0  0  0  0  0  0  0  0  0  0
   11.8728  -17.3659   30.5855 N   0  0  0  0  0  0  0  0  0  0  0  0
   13.6722  -17.3145   24.2822 C   0  0  0  0  0  0  0  0  0  0  0  0
   14.7902  -16.7558   24.5432 O   0  0  0  0  0  0  0  0  0  0  0  0
   13.7713  -18.6205   23.8294 O   0  0  0  0  0  0  0  0  0  0  0  0
  2 10  1  0
  2  1  1  1
  3  2  1  0
  4  3  1  0
  4  9  2  0
  5  4  1  0
  6  5  2  0
  6  7  1  0
  7  8  2  0
  8  9  1  0
 10 11  2  0
 12 13  1  0
 12 10  1  0
 13 14  1  6
 14 15  1  0
 15 16  1  0
 16 20  1  0
 17 16  2  0
 18 13  1  0
 19 18  2  0
 21 18  1  0
 22 23  1  1
 22 21  1  0
 24 25  1  0
 24 23  1  0
 25 26  1  0
 26 27  1  0
 28 22  1  0
 28 30  1  0
 29 28  2  0
M  END
$$$$
