FEK.pdb
     RDKit          3D

 30 30  0  0  1  0  0  0  0  0999 V2000
    5.7854  -17.6695   25.6420 N   0  0  0  0  0  0  0  0  0  0  0  0
    6.5536  -16.5251   25.2415 C   0  0  1  0  0  0  0  0  0  0  0  0
    7.0850  -15.7495   26.4325 C   0  0  0  0  0  0  0  0  0  0  0  0
    6.7182  -14.3209   26.2029 C   0  0  0  0  0  0  0  0  0  0  0  0
    5.5076  -13.8263   26.6084 C   0  0  0  0  0  0  0  0  0  0  0  0
    5.1880  -12.4998   26.3868 C   0  0  0  0  0  0  0  0  0  0  0  0
    6.0950  -11.6947   25.7597 C   0  0  0  0  0  0  0  0  0  0  0  0
    7.3076  -12.1646   25.3464 C   0  0  0  0  0  0  0  0  0  0  0  0
    7.6237  -13.4928   25.5701 C   0  0  0  0  0  0  0  0  0  0  0  0
    7.6422  -16.9574   24.3439 C   0  0  0  0  0  0  0  0  0  0  0  0
    8.3629  -17.9507   24.6785 O   0  0  0  0  0  0  0  0  0  0  0  0
    7.8615  -16.2602   23.1326 N   0  0  0  0  0  0  0  0  0  0  0  0
    8.9290  -16.7897   22.2366 C   0  0  1  0  0  0  0  0  0  0  0  0
    8.7310  -16.1101   20.9015 C   0  0  0  0  0  0  0  0  0  0  0  0
    9.7043  -16.4288   19.8397 C   0  0  0  0  0  0  0  0  0  0  0  0
    9.4048  -15.7693   18.5745 C   0  0  0  0  0  0  0  0  0  0  0  0
   10.2690  -15.6323   17.6852 O   0  0  0  0  0  0  0  0  0  0  0  0
   10.2399  -16.4044   22.8169 C   0  0  0  0  0  0  0  0  0  0  0  0
   10.2975  -15.3164   23.4979 O   0  0  0  0  0  0  0  0  0  0  0  0
    8.1312  -15.2797   18.3463 O   0  0  0  0  0  0  0  0  0  0  0  0
   11.4428  -17.1173   22.7034 N   0  0  0  0  0  0  0  0  0  0  0  0
   12.5055  -16.9920   23.7260 C   0  0  1  0  0  0  0  0  0  0  0  0
   12.3063  -18.0075   24.8009 C   0  0  0  0  0  0  0  0  0  0  0  0
   13.3884  -18.0780   25.8367 C   0  0  0  0  0  0  0  0  0  0  0  0
   12.9537  -19.1226   26.8809 C   0  0  0  0  0  0  0  0  0  0  0  0
   14.0258  -19.2630   27.9480 C   0  0  0  0  0  0  0  0  0  0  0  0
   13.5283  -20.2946   28.8678 N   0  0  0  0  0  0  0  0  0  0  0  0
   13.8108  -17.1427   23.0634 C   0  0  0  0  0  0  0  0  0  0  0  0
   14.8995  -17.0356   23.7218 O   0  0  0  0  0  0  0  0  0  0  0  0
   13.9763  -17.4065   21.7130 O   0  0  0  0  0  0  0  0  0  0  0  0
  2 10  1  0
  2  1  1  1
  3  2  1  0
  4  3  1  0
  4  9  2  0
  5  4  1  0
  6  5  2  0
  6  7  1  0
  7  8  2  0
  8  9  1  0
 10 11  2  0
 12 13  1  0
 12 10  1  0
 13 14  1  6
 14 15  1  0
 15 16  1  0
 16 20  1  0
 17 16  2  0
 18 13  1  0
 19 18  2  0
 21 18  1  0
 22 23  1  1
 22 21  1  0
 24 25  1  0
 24 23  1  0
 25 26  1  0
 26 27  1  0
 28 22  1  0
 28 30  1  0
 29 28  2  0
M  END
$$$$
