TER.pdb
     RDKit          3D

 28 27  0  0  1  0  0  0  0  0999 V2000
    6.5647  -12.6127   18.4040 C   0  0  0  0  0  0  0  0  0  0  0  0
    7.2851  -13.7787   18.9880 C   0  0  1  0  0  0  0  0  0  0  0  0
    7.6255  -14.6179   17.8988 O   0  0  0  0  0  0  0  0  0  0  0  0
    8.5978  -13.4433   19.6604 C   0  0  2  0  0  0  0  0  0  0  0  0
    9.4464  -12.9214   18.5722 N   0  0  0  0  0  0  0  0  0  0  0  0
    9.3010  -14.6277   20.2067 C   0  0  0  0  0  0  0  0  0  0  0  0
    8.7684  -15.2813   21.1220 O   0  0  0  0  0  0  0  0  0  0  0  0
   10.5634  -15.0701   19.7429 N   0  0  0  0  0  0  0  0  0  0  0  0
   11.3695  -16.1257   20.2840 C   0  0  1  0  0  0  0  0  0  0  0  0
   12.2794  -16.7877   19.3392 C   0  0  0  0  0  0  0  0  0  0  0  0
   11.6554  -17.2416   18.0514 C   0  0  0  0  0  0  0  0  0  0  0  0
   12.6819  -17.7985   17.1635 C   0  0  0  0  0  0  0  0  0  0  0  0
   13.5030  -17.0554   16.5943 O   0  0  0  0  0  0  0  0  0  0  0  0
   12.1790  -15.6420   21.4803 C   0  0  0  0  0  0  0  0  0  0  0  0
   12.8509  -14.6002   21.3791 O   0  0  0  0  0  0  0  0  0  0  0  0
   12.8021  -19.1660   16.9048 O   0  0  0  0  0  0  0  0  0  0  0  0
    9.8414  -16.3337   29.4122 N   0  0  0  0  0  0  0  0  0  0  0  0
   10.6572  -15.2472   29.0007 C   0  0  0  0  0  0  0  0  0  0  0  0
   10.9589  -14.3282   29.8305 N   0  0  0  0  0  0  0  0  0  0  0  0
   11.1323  -15.1918   27.6625 N   0  0  0  0  0  0  0  0  0  0  0  0
   10.2846  -15.6612   26.5732 C   0  0  0  0  0  0  0  0  0  0  0  0
   10.9478  -15.3997   25.2438 C   0  0  0  0  0  0  0  0  0  0  0  0
   12.1673  -16.2497   25.0851 C   0  0  0  0  0  0  0  0  0  0  0  0
   12.9023  -15.8989   23.8241 C   0  0  2  0  0  0  0  0  0  0  0  0
   12.1330  -16.4005   22.6641 N   0  0  0  0  0  0  0  0  0  0  0  0
   14.2380  -16.5113   23.6934 C   0  0  0  0  0  0  0  0  0  0  0  0
   15.3874  -15.9593   24.2485 O   0  0  0  0  0  0  0  0  0  0  0  0
   14.4011  -17.5794   23.0630 O   0  0  0  0  0  0  0  0  0  0  0  0
  2  1  1  6
  2  4  1  0
  3  2  1  0
  4  6  1  0
  4  5  1  6
  6  7  2  0
  8  9  1  0
  8  6  1  0
  9 10  1  6
 10 11  1  0
 11 12  1  0
 12 13  2  0
 12 16  1  0
 14 15  2  0
 14  9  1  0
 17 18  1  0
 18 19  2  0
 20 18  1  0
 20 21  1  0
 22 23  1  0
 22 21  1  0
 24 23  1  1
 24 26  1  0
 24 25  1  0
 25 14  1  0
 26 27  1  0
 28 26  2  0
M  END
$$$$
