TER.pdb
     RDKit          3D

 28 27  0  0  1  0  0  0  0  0999 V2000
    8.7401  -12.6519   20.1617 C   0  0  0  0  0  0  0  0  0  0  0  0
    7.9554  -13.3961   19.1369 C   0  0  1  0  0  0  0  0  0  0  0  0
    7.8120  -12.5175   18.0351 O   0  0  0  0  0  0  0  0  0  0  0  0
    8.6393  -14.6258   18.5819 C   0  0  2  0  0  0  0  0  0  0  0  0
    7.6127  -15.2703   17.7410 N   0  0  0  0  0  0  0  0  0  0  0  0
    9.0096  -15.6152   19.6209 C   0  0  0  0  0  0  0  0  0  0  0  0
    8.1117  -16.2574   20.1953 O   0  0  0  0  0  0  0  0  0  0  0  0
   10.3458  -15.8805   20.0067 N   0  0  0  0  0  0  0  0  0  0  0  0
   10.7925  -16.7250   21.0764 C   0  0  1  0  0  0  0  0  0  0  0  0
   12.2135  -17.0974   21.0499 C   0  0  0  0  0  0  0  0  0  0  0  0
   12.6636  -18.0081   22.1553 C   0  0  0  0  0  0  0  0  0  0  0  0
   14.0939  -18.3026   22.0140 C   0  0  0  0  0  0  0  0  0  0  0  0
   14.5076  -19.0196   21.0839 O   0  0  0  0  0  0  0  0  0  0  0  0
   10.4770  -16.1082   22.4330 C   0  0  0  0  0  0  0  0  0  0  0  0
   10.9523  -14.9954   22.7206 O   0  0  0  0  0  0  0  0  0  0  0  0
   15.0615  -17.8097   22.8927 O   0  0  0  0  0  0  0  0  0  0  0  0
    5.0744  -11.0052   26.4704 N   0  0  0  0  0  0  0  0  0  0  0  0
    6.2180  -11.6786   25.9660 C   0  0  0  0  0  0  0  0  0  0  0  0
    7.1814  -11.0099   25.4673 N   0  0  0  0  0  0  0  0  0  0  0  0
    6.2798  -13.0973   26.0205 N   0  0  0  0  0  0  0  0  0  0  0  0
    7.5552  -13.7747   25.8203 C   0  0  0  0  0  0  0  0  0  0  0  0
    7.3654  -15.2707   25.8606 C   0  0  0  0  0  0  0  0  0  0  0  0
    7.8002  -15.8935   24.5731 C   0  0  0  0  0  0  0  0  0  0  0  0
    9.2755  -16.1716   24.5858 C   0  0  2  0  0  0  0  0  0  0  0  0
    9.6514  -16.8291   23.3148 N   0  0  0  0  0  0  0  0  0  0  0  0
    9.7236  -17.0962   25.6442 C   0  0  0  0  0  0  0  0  0  0  0  0
    9.8830  -16.7154   26.9721 O   0  0  0  0  0  0  0  0  0  0  0  0
    9.9866  -18.2924   25.3894 O   0  0  0  0  0  0  0  0  0  0  0  0
  2  1  1  1
  2  4  1  0
  3  2  1  0
  4  6  1  0
  4  5  1  6
  6  7  2  0
  8  9  1  0
  8  6  1  0
  9 10  1  6
 10 11  1  0
 11 12  1  0
 12 13  2  0
 12 16  1  0
 14 15  2  0
 14  9  1  0
 17 18  1  0
 18 19  2  0
 20 18  1  0
 20 21  1  0
 22 23  1  0
 22 21  1  0
 24 23  1  6
 24 26  1  0
 24 25  1  0
 25 14  1  0
 26 27  1  0
 28 26  2  0
M  END
$$$$
