TER.pdb
     RDKit          3D

 28 27  0  0  1  0  0  0  0  0999 V2000
   12.2446  -17.5826   15.0158 C   0  0  0  0  0  0  0  0  0  0  0  0
   11.8749  -17.6052   16.4588 C   0  0  1  0  0  0  0  0  0  0  0  0
   10.8633  -16.6273   16.6222 O   0  0  0  0  0  0  0  0  0  0  0  0
   11.2596  -18.9014   16.9375 C   0  0  2  0  0  0  0  0  0  0  0  0
   10.0174  -19.0316   16.1522 N   0  0  0  0  0  0  0  0  0  0  0  0
   10.8520  -18.8710   18.3618 C   0  0  0  0  0  0  0  0  0  0  0  0
    9.6519  -18.7049   18.6464 O   0  0  0  0  0  0  0  0  0  0  0  0
   11.7594  -19.0230   19.4379 N   0  0  0  0  0  0  0  0  0  0  0  0
   11.4450  -19.1500   20.8314 C   0  0  1  0  0  0  0  0  0  0  0  0
   12.2933  -20.0713   21.5997 C   0  0  0  0  0  0  0  0  0  0  0  0
   12.0307  -21.5321   21.3738 C   0  0  0  0  0  0  0  0  0  0  0  0
   12.9413  -22.3398   22.1929 C   0  0  0  0  0  0  0  0  0  0  0  0
   12.5055  -23.2556   22.9150 O   0  0  0  0  0  0  0  0  0  0  0  0
   11.4512  -17.7927   21.5229 C   0  0  0  0  0  0  0  0  0  0  0  0
   12.3486  -16.9756   21.2511 O   0  0  0  0  0  0  0  0  0  0  0  0
   14.3235  -22.1386   22.2154 O   0  0  0  0  0  0  0  0  0  0  0  0
    8.3521  -12.5942   18.0675 N   0  0  0  0  0  0  0  0  0  0  0  0
    7.8802  -12.7958   19.3912 C   0  0  0  0  0  0  0  0  0  0  0  0
    7.7757  -11.8059   20.1870 N   0  0  0  0  0  0  0  0  0  0  0  0
    7.5275  -14.1038   19.8205 N   0  0  0  0  0  0  0  0  0  0  0  0
    7.6695  -14.4677   21.2251 C   0  0  0  0  0  0  0  0  0  0  0  0
    9.0124  -15.1112   21.4661 C   0  0  0  0  0  0  0  0  0  0  0  0
    9.1642  -15.4957   22.9027 C   0  0  0  0  0  0  0  0  0  0  0  0
   10.4691  -16.2020   23.1314 C   0  0  2  0  0  0  0  0  0  0  0  0
   10.4306  -17.5149   22.4502 N   0  0  0  0  0  0  0  0  0  0  0  0
   10.7691  -16.5098   24.5425 C   0  0  0  0  0  0  0  0  0  0  0  0
   11.3320  -15.5899   25.4205 O   0  0  0  0  0  0  0  0  0  0  0  0
   10.5253  -17.6381   25.0245 O   0  0  0  0  0  0  0  0  0  0  0  0
  2  1  1  6
  2  4  1  0
  3  2  1  0
  4  6  1  0
  4  5  1  6
  6  7  2  0
  8  9  1  0
  8  6  1  0
  9 10  1  1
 10 11  1  0
 11 12  1  0
 12 13  2  0
 12 16  1  0
 14 15  2  0
 14  9  1  0
 17 18  1  0
 18 19  2  0
 20 18  1  0
 20 21  1  0
 22 23  1  0
 22 21  1  0
 24 23  1  1
 24 26  1  0
 24 25  1  0
 25 14  1  0
 26 27  1  0
 28 26  2  0
M  END
$$$$
