TER.pdb
     RDKit          3D

 28 27  0  0  1  0  0  0  0  0999 V2000
    7.5037  -11.7545   18.8040 C   0  0  0  0  0  0  0  0  0  0  0  0
    8.3052  -12.8336   19.4464 C   0  0  1  0  0  0  0  0  0  0  0  0
    7.3987  -13.5798   20.2388 O   0  0  0  0  0  0  0  0  0  0  0  0
    8.9128  -13.8319   18.4861 C   0  0  2  0  0  0  0  0  0  0  0  0
    7.7691  -14.3263   17.6961 N   0  0  0  0  0  0  0  0  0  0  0  0
    9.4995  -15.0155   19.1575 C   0  0  0  0  0  0  0  0  0  0  0  0
    8.8002  -16.0327   19.3152 O   0  0  0  0  0  0  0  0  0  0  0  0
   10.8304  -15.0616   19.6383 N   0  0  0  0  0  0  0  0  0  0  0  0
   11.4461  -16.1101   20.3988 C   0  0  1  0  0  0  0  0  0  0  0  0
   12.9124  -16.1754   20.3326 C   0  0  0  0  0  0  0  0  0  0  0  0
   13.6161  -14.8506   20.2704 C   0  0  0  0  0  0  0  0  0  0  0  0
   15.0693  -15.0518   20.2743 C   0  0  0  0  0  0  0  0  0  0  0  0
   15.5547  -16.1919   20.1523 O   0  0  0  0  0  0  0  0  0  0  0  0
   11.0282  -16.0467   21.8623 C   0  0  0  0  0  0  0  0  0  0  0  0
   10.7028  -14.9521   22.3552 O   0  0  0  0  0  0  0  0  0  0  0  0
   15.9812  -14.0026   20.4120 O   0  0  0  0  0  0  0  0  0  0  0  0
    5.7325  -21.5267   26.8016 N   0  0  0  0  0  0  0  0  0  0  0  0
    6.8742  -20.8420   27.2952 C   0  0  0  0  0  0  0  0  0  0  0  0
    7.5564  -21.3462   28.2462 N   0  0  0  0  0  0  0  0  0  0  0  0
    7.2485  -19.5959   26.7239 N   0  0  0  0  0  0  0  0  0  0  0  0
    8.0034  -19.5686   25.4769 C   0  0  0  0  0  0  0  0  0  0  0  0
    8.3988  -18.1535   25.1351 C   0  0  0  0  0  0  0  0  0  0  0  0
    9.1157  -18.1070   23.8241 C   0  0  0  0  0  0  0  0  0  0  0  0
   10.3308  -17.2296   23.9109 C   0  0  2  0  0  0  0  0  0  0  0  0
   11.0262  -17.2414   22.6050 N   0  0  0  0  0  0  0  0  0  0  0  0
   11.3438  -17.6675   24.8898 C   0  0  0  0  0  0  0  0  0  0  0  0
   11.2409  -17.4226   26.2548 O   0  0  0  0  0  0  0  0  0  0  0  0
   12.3647  -18.2934   24.5282 O   0  0  0  0  0  0  0  0  0  0  0  0
  2  1  1  6
  2  4  1  0
  3  2  1  0
  4  6  1  0
  4  5  1  6
  6  7  2  0
  8  9  1  0
  8  6  1  0
  9 10  1  1
 10 11  1  0
 11 12  1  0
 12 13  2  0
 12 16  1  0
 14 15  2  0
 14  9  1  0
 17 18  1  0
 18 19  2  0
 20 18  1  0
 20 21  1  0
 22 23  1  0
 22 21  1  0
 24 23  1  6
 24 26  1  0
 24 25  1  0
 25 14  1  0
 26 27  1  0
 28 26  2  0
M  END
$$$$
