TER.pdb
     RDKit          3D

 28 27  0  0  1  0  0  0  0  0999 V2000
    7.6641  -12.2892   17.6429 C   0  0  0  0  0  0  0  0  0  0  0  0
    7.7085  -13.4136   18.6193 C   0  0  1  0  0  0  0  0  0  0  0  0
    7.7990  -14.6001   17.8509 O   0  0  0  0  0  0  0  0  0  0  0  0
    8.9237  -13.4263   19.5198 C   0  0  2  0  0  0  0  0  0  0  0  0
   10.0649  -13.5738   18.5964 N   0  0  0  0  0  0  0  0  0  0  0  0
    8.9709  -14.5933   20.4317 C   0  0  0  0  0  0  0  0  0  0  0  0
    8.1997  -14.6328   21.4076 O   0  0  0  0  0  0  0  0  0  0  0  0
    9.8542  -15.6860   20.2577 N   0  0  0  0  0  0  0  0  0  0  0  0
    9.9811  -16.8453   21.0926 C   0  0  1  0  0  0  0  0  0  0  0  0
   10.8748  -17.9001   20.5951 C   0  0  0  0  0  0  0  0  0  0  0  0
   12.3384  -17.6783   20.8453 C   0  0  0  0  0  0  0  0  0  0  0  0
   13.1169  -18.7981   20.3046 C   0  0  0  0  0  0  0  0  0  0  0  0
   14.0527  -19.2969   20.9571 O   0  0  0  0  0  0  0  0  0  0  0  0
   10.4169  -16.4638   22.5014 C   0  0  0  0  0  0  0  0  0  0  0  0
   11.5171  -15.9081   22.6684 O   0  0  0  0  0  0  0  0  0  0  0  0
   12.8650  -19.3639   19.0526 O   0  0  0  0  0  0  0  0  0  0  0  0
    6.6552  -10.8498   26.1423 N   0  0  0  0  0  0  0  0  0  0  0  0
    6.6638  -12.1793   26.6403 C   0  0  0  0  0  0  0  0  0  0  0  0
    5.9649  -12.4801   27.6626 N   0  0  0  0  0  0  0  0  0  0  0  0
    7.4543  -13.1674   25.9937 N   0  0  0  0  0  0  0  0  0  0  0  0
    8.1471  -12.8425   24.7528 C   0  0  0  0  0  0  0  0  0  0  0  0
    8.8942  -14.0481   24.2390 C   0  0  0  0  0  0  0  0  0  0  0  0
    8.8944  -15.1431   25.2568 C   0  0  0  0  0  0  0  0  0  0  0  0
    9.8917  -16.2060   24.8973 C   0  0  2  0  0  0  0  0  0  0  0  0
    9.5481  -16.7575   23.5680 N   0  0  0  0  0  0  0  0  0  0  0  0
    9.9116  -17.3702   25.8030 C   0  0  0  0  0  0  0  0  0  0  0  0
    9.3863  -18.6115   25.4609 O   0  0  0  0  0  0  0  0  0  0  0  0
   10.4134  -17.2918   26.9463 O   0  0  0  0  0  0  0  0  0  0  0  0
  2  1  1  6
  2  4  1  0
  3  2  1  0
  4  6  1  0
  4  5  1  6
  6  7  2  0
  8  9  1  0
  8  6  1  0
  9 10  1  6
 10 11  1  0
 11 12  1  0
 12 13  2  0
 12 16  1  0
 14 15  2  0
 14  9  1  0
 17 18  1  0
 18 19  2  0
 20 18  1  0
 20 21  1  0
 22 23  1  0
 22 21  1  0
 24 23  1  1
 24 26  1  0
 24 25  1  0
 25 14  1  0
 26 27  1  0
 28 26  2  0
M  END
$$$$
