HWL.pdb
     RDKit          3D

 33 35  0  0  1  0  0  0  0  0999 V2000
   11.6515  -17.2151   19.6808 N   0  0  0  0  0  0  0  0  0  0  0  0
   10.8924  -17.8151   20.7457 C   0  0  1  0  0  0  0  0  0  0  0  0
   11.7058  -18.8531   21.4997 C   0  0  0  0  0  0  0  0  0  0  0  0
   11.8264  -20.1104   20.7411 C   0  0  0  0  0  0  0  0  0  0  0  0
   12.0590  -20.3335   19.4133 C   0  0  0  0  0  0  0  0  0  0  0  0
   12.0802  -21.6472   19.2021 N   0  0  0  0  0  0  0  0  0  0  0  0
   11.8646  -22.2642   20.3751 C   0  0  0  0  0  0  0  0  0  0  0  0
   11.7080  -21.3220   21.3264 N   0  0  0  0  0  0  0  0  0  0  0  0
   10.5153  -16.7703   21.7239 C   0  0  0  0  0  0  0  0  0  0  0  0
   11.2146  -15.7153   21.7756 O   0  0  0  0  0  0  0  0  0  0  0  0
    9.4180  -16.9359   22.5721 N   0  0  0  0  0  0  0  0  0  0  0  0
    8.9370  -15.8297   23.3653 C   0  0  1  0  0  0  0  0  0  0  0  0
    7.4784  -15.9203   23.5660 C   0  0  0  0  0  0  0  0  0  0  0  0
    6.8549  -15.1390   24.5981 C   0  0  0  0  0  0  0  0  0  0  0  0
    6.1018  -15.5409   25.6656 C   0  0  0  0  0  0  0  0  0  0  0  0
    5.7360  -14.4296   26.3795 N   0  0  0  0  0  0  0  0  0  0  0  0
    6.2468  -13.3439   25.7775 C   0  0  0  0  0  0  0  0  0  0  0  0
    6.1759  -12.0009   26.0885 C   0  0  0  0  0  0  0  0  0  0  0  0
    6.8062  -11.0432   25.2921 C   0  0  0  0  0  0  0  0  0  0  0  0
    7.5054  -11.4599   24.1832 C   0  0  0  0  0  0  0  0  0  0  0  0
    7.5594  -12.7947   23.8988 C   0  0  0  0  0  0  0  0  0  0  0  0
    6.9368  -13.7570   24.6832 C   0  0  0  0  0  0  0  0  0  0  0  0
    9.7433  -15.7179   24.5762 C   0  0  0  0  0  0  0  0  0  0  0  0
   10.1515  -14.6066   24.9627 O   0  0  0  0  0  0  0  0  0  0  0  0
   11.0110  -14.2495   27.8993 C   0  0  0  0  0  0  0  0  0  0  0  0
    9.6097  -14.8200   27.8201 C   0  0  2  0  0  0  0  0  0  0  0  0
    8.7102  -14.2261   28.8298 C   0  0  0  0  0  0  0  0  0  0  0  0
    9.5343  -16.2788   27.5953 C   0  0  0  0  0  0  0  0  0  0  0  0
   10.5220  -16.8855   26.6874 C   0  0  2  0  0  0  0  0  0  0  0  0
   10.0547  -16.8805   25.3010 N   0  0  0  0  0  0  0  0  0  0  0  0
   11.0508  -18.2049   26.9751 C   0  0  0  0  0  0  0  0  0  0  0  0
   10.6107  -19.1937   26.2844 O   0  0  0  0  0  0  0  0  0  0  0  0
   11.9979  -18.5551   27.9185 O   0  0  0  0  0  0  0  0  0  0  0  0
  2  1  1  6
  2  3  1  0
  3  4  1  0
  4  5  2  0
  4  8  1  0
  5  6  1  0
  6  7  1  0
  8  7  2  0
  9 10  2  0
  9  2  1  0
 11  9  1  0
 12 13  1  1
 12 11  1  0
 13 14  1  0
 14 15  2  0
 14 22  1  0
 15 16  1  0
 16 17  1  0
 17 18  2  0
 19 18  1  0
 20 19  2  0
 21 22  2  0
 21 20  1  0
 22 17  1  0
 23 12  1  0
 24 23  2  0
 26 25  1  1
 26 28  1  0
 27 26  1  0
 29 28  1  1
 29 30  1  0
 30 23  1  0
 31 33  1  0
 31 29  1  0
 32 31  2  0
M  END
$$$$
