HWL.pdb
     RDKit          3D

 33 35  0  0  1  0  0  0  0  0999 V2000
    9.7547  -19.1178   22.0181 N   0  0  0  0  0  0  0  0  0  0  0  0
   11.0737  -18.8309   21.5198 C   0  0  1  0  0  0  0  0  0  0  0  0
   11.0897  -18.7180   20.0051 C   0  0  0  0  0  0  0  0  0  0  0  0
   10.7049  -19.9843   19.3577 C   0  0  0  0  0  0  0  0  0  0  0  0
   10.1868  -21.1343   19.8830 C   0  0  0  0  0  0  0  0  0  0  0  0
   10.0058  -22.0071   18.8948 N   0  0  0  0  0  0  0  0  0  0  0  0
   10.4008  -21.4305   17.7483 C   0  0  0  0  0  0  0  0  0  0  0  0
   10.8320  -20.1843   18.0279 N   0  0  0  0  0  0  0  0  0  0  0  0
   11.5228  -17.5255   22.0534 C   0  0  0  0  0  0  0  0  0  0  0  0
   12.6395  -17.0701   21.6657 O   0  0  0  0  0  0  0  0  0  0  0  0
   10.7413  -16.8079   22.9619 N   0  0  0  0  0  0  0  0  0  0  0  0
   11.1998  -15.5381   23.4732 C   0  0  1  0  0  0  0  0  0  0  0  0
   10.5789  -14.4194   22.7390 C   0  0  0  0  0  0  0  0  0  0  0  0
    9.1539  -14.3952   22.5568 C   0  0  0  0  0  0  0  0  0  0  0  0
    8.1616  -14.8999   23.3499 C   0  0  0  0  0  0  0  0  0  0  0  0
    6.9550  -14.6205   22.7630 N   0  0  0  0  0  0  0  0  0  0  0  0
    7.1766  -13.9515   21.6205 C   0  0  0  0  0  0  0  0  0  0  0  0
    6.3141  -13.4435   20.6700 C   0  0  0  0  0  0  0  0  0  0  0  0
    6.7967  -12.7704   19.5462 C   0  0  0  0  0  0  0  0  0  0  0  0
    8.1558  -12.6189   19.3977 C   0  0  0  0  0  0  0  0  0  0  0  0
    8.9864  -13.1314   20.3532 C   0  0  0  0  0  0  0  0  0  0  0  0
    8.5186  -13.8027   21.4754 C   0  0  0  0  0  0  0  0  0  0  0  0
   11.0421  -15.5168   24.9236 C   0  0  0  0  0  0  0  0  0  0  0  0
   11.2646  -14.4743   25.5677 O   0  0  0  0  0  0  0  0  0  0  0  0
   10.6608  -14.1187   28.6087 C   0  0  0  0  0  0  0  0  0  0  0  0
    9.6374  -14.3599   27.5179 C   0  0  2  0  0  0  0  0  0  0  0  0
    8.5843  -13.3246   27.5054 C   0  0  0  0  0  0  0  0  0  0  0  0
    9.2284  -15.7686   27.3370 C   0  0  0  0  0  0  0  0  0  0  0  0
   10.2741  -16.7494   27.0014 C   0  0  2  0  0  0  0  0  0  0  0  0
   10.6368  -16.6880   25.5854 N   0  0  0  0  0  0  0  0  0  0  0  0
   10.0946  -18.1442   27.3557 C   0  0  0  0  0  0  0  0  0  0  0  0
   10.0549  -19.0066   26.4053 O   0  0  0  0  0  0  0  0  0  0  0  0
    9.9607  -18.6915   28.6175 O   0  0  0  0  0  0  0  0  0  0  0  0
  2  1  1  1
  2  3  1  0
  3  4  1  0
  4  5  2  0
  4  8  1  0
  5  6  1  0
  6  7  1  0
  8  7  2  0
  9 10  2  0
  9  2  1  0
 11  9  1  0
 12 13  1  6
 12 11  1  0
 13 14  1  0
 14 15  2  0
 14 22  1  0
 15 16  1  0
 16 17  1  0
 17 18  2  0
 19 18  1  0
 20 19  2  0
 21 22  2  0
 21 20  1  0
 22 17  1  0
 23 12  1  0
 24 23  2  0
 26 25  1  1
 26 28  1  0
 27 26  1  0
 29 28  1  6
 29 30  1  0
 30 23  1  0
 31 33  1  0
 31 29  1  0
 32 31  2  0
M  END
$$$$
