HWL.pdb
     RDKit          3D

 33 35  0  0  1  0  0  0  0  0999 V2000
   10.6159  -18.9054   20.9340 N   0  0  0  0  0  0  0  0  0  0  0  0
   11.1835  -17.6323   20.5770 C   0  0  1  0  0  0  0  0  0  0  0  0
   10.6321  -17.1218   19.2569 C   0  0  0  0  0  0  0  0  0  0  0  0
   11.3156  -17.7348   18.1046 C   0  0  0  0  0  0  0  0  0  0  0  0
   12.5485  -18.3149   18.0027 C   0  0  0  0  0  0  0  0  0  0  0  0
   12.7215  -18.7240   16.7482 N   0  0  0  0  0  0  0  0  0  0  0  0
   11.6177  -18.4132   16.0496 C   0  0  0  0  0  0  0  0  0  0  0  0
   10.7484  -17.8040   16.8806 N   0  0  0  0  0  0  0  0  0  0  0  0
   10.8255  -16.6328   21.6082 C   0  0  0  0  0  0  0  0  0  0  0  0
   11.2676  -15.4526   21.4800 O   0  0  0  0  0  0  0  0  0  0  0  0
   10.0214  -16.9743   22.6981 N   0  0  0  0  0  0  0  0  0  0  0  0
    9.6439  -15.9726   23.6669 C   0  0  1  0  0  0  0  0  0  0  0  0
    8.1773  -15.8276   23.7306 C   0  0  0  0  0  0  0  0  0  0  0  0
    7.4402  -15.5441   22.5303 C   0  0  0  0  0  0  0  0  0  0  0  0
    6.4700  -16.2769   21.9056 C   0  0  0  0  0  0  0  0  0  0  0  0
    6.0555  -15.5880   20.7956 N   0  0  0  0  0  0  0  0  0  0  0  0
    6.7483  -14.4409   20.7172 C   0  0  0  0  0  0  0  0  0  0  0  0
    6.7129  -13.4057   19.8049 C   0  0  0  0  0  0  0  0  0  0  0  0
    7.5479  -12.2954   19.9431 C   0  0  0  0  0  0  0  0  0  0  0  0
    8.4141  -12.2467   21.0107 C   0  0  0  0  0  0  0  0  0  0  0  0
    8.4283  -13.2847   21.8982 C   0  0  0  0  0  0  0  0  0  0  0  0
    7.6027  -14.3943   21.7718 C   0  0  0  0  0  0  0  0  0  0  0  0
   10.3146  -16.2492   24.9328 C   0  0  0  0  0  0  0  0  0  0  0  0
   11.5550  -16.1782   25.0190 O   0  0  0  0  0  0  0  0  0  0  0  0
   11.1508  -13.7134   28.0429 C   0  0  0  0  0  0  0  0  0  0  0  0
    9.7102  -14.1522   27.8778 C   0  0  2  0  0  0  0  0  0  0  0  0
    8.7587  -13.1161   28.3278 C   0  0  0  0  0  0  0  0  0  0  0  0
    9.4324  -15.5565   28.2451 C   0  0  0  0  0  0  0  0  0  0  0  0
   10.0482  -16.6148   27.4272 C   0  0  2  0  0  0  0  0  0  0  0  0
    9.5433  -16.5980   26.0542 N   0  0  0  0  0  0  0  0  0  0  0  0
   10.0296  -17.9883   27.8925 C   0  0  0  0  0  0  0  0  0  0  0  0
    9.2608  -18.8190   27.2864 O   0  0  0  0  0  0  0  0  0  0  0  0
   10.7530  -18.5454   28.9298 O   0  0  0  0  0  0  0  0  0  0  0  0
  2  1  1  1
  2  3  1  0
  3  4  1  0
  4  5  2  0
  4  8  1  0
  5  6  1  0
  6  7  1  0
  8  7  2  0
  9 10  2  0
  9  2  1  0
 11  9  1  0
 12 13  1  1
 12 11  1  0
 13 14  1  0
 14 15  2  0
 14 22  1  0
 15 16  1  0
 16 17  1  0
 17 18  2  0
 19 18  1  0
 20 19  2  0
 21 22  2  0
 21 20  1  0
 22 17  1  0
 23 12  1  0
 24 23  2  0
 26 25  1  1
 26 28  1  0
 27 26  1  0
 29 28  1  1
 29 30  1  0
 30 23  1  0
 31 33  1  0
 31 29  1  0
 32 31  2  0
M  END
$$$$
