HWL.pdb
     RDKit          3D

 33 35  0  0  1  0  0  0  0  0999 V2000
   10.8061  -18.6628   20.2555 N   0  0  0  0  0  0  0  0  0  0  0  0
   11.4156  -17.3619   20.3370 C   0  0  1  0  0  0  0  0  0  0  0  0
   11.0945  -16.5138   19.1183 C   0  0  0  0  0  0  0  0  0  0  0  0
   11.0884  -17.3138   17.8810 C   0  0  0  0  0  0  0  0  0  0  0  0
   10.0582  -17.6911   17.0667 C   0  0  0  0  0  0  0  0  0  0  0  0
   10.5532  -18.4138   16.0649 N   0  0  0  0  0  0  0  0  0  0  0  0
   11.8830  -18.5026   16.2289 C   0  0  0  0  0  0  0  0  0  0  0  0
   12.2178  -17.8264   17.3459 N   0  0  0  0  0  0  0  0  0  0  0  0
   10.8775  -16.6446   21.5144 C   0  0  0  0  0  0  0  0  0  0  0  0
   11.3331  -15.4918   21.7754 O   0  0  0  0  0  0  0  0  0  0  0  0
    9.8925  -17.2173   22.3223 N   0  0  0  0  0  0  0  0  0  0  0  0
    9.3809  -16.5002   23.4661 C   0  0  1  0  0  0  0  0  0  0  0  0
    7.9078  -16.4327   23.4298 C   0  0  0  0  0  0  0  0  0  0  0  0
    7.2091  -15.6567   24.4167 C   0  0  0  0  0  0  0  0  0  0  0  0
    6.4197  -16.0671   25.4544 C   0  0  0  0  0  0  0  0  0  0  0  0
    5.9822  -14.9576   26.1298 N   0  0  0  0  0  0  0  0  0  0  0  0
    6.4840  -13.8647   25.5332 C   0  0  0  0  0  0  0  0  0  0  0  0
    6.3524  -12.5201   25.8161 C   0  0  0  0  0  0  0  0  0  0  0  0
    6.9873  -11.5542   25.0332 C   0  0  0  0  0  0  0  0  0  0  0  0
    7.7528  -11.9644   23.9665 C   0  0  0  0  0  0  0  0  0  0  0  0
    7.8659  -13.3011   23.7093 C   0  0  0  0  0  0  0  0  0  0  0  0
    7.2396  -14.2714   24.4805 C   0  0  0  0  0  0  0  0  0  0  0  0
    9.9657  -17.0533   24.6832 C   0  0  0  0  0  0  0  0  0  0  0  0
   10.7573  -18.0129   24.6238 O   0  0  0  0  0  0  0  0  0  0  0  0
    9.1466  -13.9345   29.4876 C   0  0  0  0  0  0  0  0  0  0  0  0
    9.8405  -14.6535   28.3489 C   0  0  2  0  0  0  0  0  0  0  0  0
    9.7231  -13.9178   27.0736 C   0  0  0  0  0  0  0  0  0  0  0  0
    9.6574  -16.1199   28.3239 C   0  0  0  0  0  0  0  0  0  0  0  0
   10.2411  -16.8655   27.1963 C   0  0  2  0  0  0  0  0  0  0  0  0
    9.6237  -16.4901   25.9241 N   0  0  0  0  0  0  0  0  0  0  0  0
   10.3107  -18.3132   27.2482 C   0  0  0  0  0  0  0  0  0  0  0  0
    9.3957  -18.9820   26.6449 O   0  0  0  0  0  0  0  0  0  0  0  0
   11.2604  -19.0977   27.8744 O   0  0  0  0  0  0  0  0  0  0  0  0
  2  1  1  6
  2  3  1  0
  3  4  1  0
  4  5  2  0
  4  8  1  0
  5  6  1  0
  6  7  1  0
  8  7  2  0
  9 10  2  0
  9  2  1  0
 11  9  1  0
 12 13  1  1
 12 11  1  0
 13 14  1  0
 14 15  2  0
 14 22  1  0
 15 16  1  0
 16 17  1  0
 17 18  2  0
 19 18  1  0
 20 19  2  0
 21 22  2  0
 21 20  1  0
 22 17  1  0
 23 12  1  0
 24 23  2  0
 26 25  1  1
 26 28  1  0
 27 26  1  0
 29 28  1  1
 29 30  1  0
 30 23  1  0
 31 33  1  0
 31 29  1  0
 32 31  2  0
M  END
$$$$
