HWL.pdb
     RDKit          3D

 33 35  0  0  1  0  0  0  0  0999 V2000
   10.7044  -18.7316   20.6959 N   0  0  0  0  0  0  0  0  0  0  0  0
   11.4914  -17.5313   20.7982 C   0  0  1  0  0  0  0  0  0  0  0  0
   11.3704  -16.6723   19.5513 C   0  0  0  0  0  0  0  0  0  0  0  0
   11.7676  -17.4088   18.3386 C   0  0  0  0  0  0  0  0  0  0  0  0
   12.9664  -17.9573   17.9793 C   0  0  0  0  0  0  0  0  0  0  0  0
   12.8318  -18.5216   16.7817 N   0  0  0  0  0  0  0  0  0  0  0  0
   11.5657  -18.3408   16.3727 C   0  0  0  0  0  0  0  0  0  0  0  0
   10.9059  -17.6562   17.3282 N   0  0  0  0  0  0  0  0  0  0  0  0
   10.9948  -16.7182   21.9308 C   0  0  0  0  0  0  0  0  0  0  0  0
   11.5918  -15.6335   22.1988 O   0  0  0  0  0  0  0  0  0  0  0  0
    9.8968  -17.1295   22.6898 N   0  0  0  0  0  0  0  0  0  0  0  0
    9.5129  -16.3958   23.8725 C   0  0  1  0  0  0  0  0  0  0  0  0
    8.0536  -16.1839   23.9104 C   0  0  0  0  0  0  0  0  0  0  0  0
    7.5198  -14.8770   23.6433 C   0  0  0  0  0  0  0  0  0  0  0  0
    7.3615  -14.2229   22.4535 C   0  0  0  0  0  0  0  0  0  0  0  0
    6.7971  -12.9994   22.7047 N   0  0  0  0  0  0  0  0  0  0  0  0
    6.6006  -12.8793   24.0272 C   0  0  0  0  0  0  0  0  0  0  0  0
    6.0676  -11.8589   24.7888 C   0  0  0  0  0  0  0  0  0  0  0  0
    5.9652  -11.9742   26.1763 C   0  0  0  0  0  0  0  0  0  0  0  0
    6.4067  -13.1289   26.7795 C   0  0  0  0  0  0  0  0  0  0  0  0
    6.9298  -14.1226   26.0019 C   0  0  0  0  0  0  0  0  0  0  0  0
    7.0368  -14.0200   24.6211 C   0  0  0  0  0  0  0  0  0  0  0  0
   10.0969  -17.0346   25.0471 C   0  0  0  0  0  0  0  0  0  0  0  0
   10.7529  -18.0871   24.9329 O   0  0  0  0  0  0  0  0  0  0  0  0
   11.6968  -14.1896   27.8604 C   0  0  0  0  0  0  0  0  0  0  0  0
   10.3675  -14.6198   28.4461 C   0  0  2  0  0  0  0  0  0  0  0  0
    9.8958  -13.6920   29.4939 C   0  0  0  0  0  0  0  0  0  0  0  0
   10.2248  -16.0708   28.6879 C   0  0  0  0  0  0  0  0  0  0  0  0
   10.4602  -16.9820   27.5555 C   0  0  2  0  0  0  0  0  0  0  0  0
    9.9092  -16.4479   26.3098 N   0  0  0  0  0  0  0  0  0  0  0  0
   10.0666  -18.3742   27.6565 C   0  0  0  0  0  0  0  0  0  0  0  0
   10.6388  -19.0984   28.5489 O   0  0  0  0  0  0  0  0  0  0  0  0
    9.1260  -19.0496   26.9023 O   0  0  0  0  0  0  0  0  0  0  0  0
  2  1  1  6
  2  3  1  0
  3  4  1  0
  4  5  2  0
  4  8  1  0
  5  6  1  0
  6  7  1  0
  8  7  2  0
  9 10  2  0
  9  2  1  0
 11  9  1  0
 12 13  1  1
 12 11  1  0
 13 14  1  0
 14 15  2  0
 14 22  1  0
 15 16  1  0
 16 17  1  0
 17 18  2  0
 19 18  1  0
 20 19  2  0
 21 22  2  0
 21 20  1  0
 22 17  1  0
 23 12  1  0
 24 23  2  0
 26 25  1  1
 26 28  1  0
 27 26  1  0
 29 28  1  1
 29 30  1  0
 30 23  1  0
 31 33  1  0
 31 29  1  0
 32 31  2  0
M  END
$$$$
