HWL.pdb
     RDKit          3D

 33 35  0  0  1  0  0  0  0  0999 V2000
   10.1204  -17.3521   19.5011 N   0  0  0  0  0  0  0  0  0  0  0  0
   10.7108  -17.9067   20.6903 C   0  0  1  0  0  0  0  0  0  0  0  0
   12.2140  -18.0718   20.5466 C   0  0  0  0  0  0  0  0  0  0  0  0
   12.5599  -19.0362   19.4879 C   0  0  0  0  0  0  0  0  0  0  0  0
   12.6197  -20.4011   19.5079 C   0  0  0  0  0  0  0  0  0  0  0  0
   12.9838  -20.8267   18.3008 N   0  0  0  0  0  0  0  0  0  0  0  0
   13.1569  -19.7537   17.5122 C   0  0  0  0  0  0  0  0  0  0  0  0
   12.8967  -18.6483   18.2385 N   0  0  0  0  0  0  0  0  0  0  0  0
   10.4858  -16.9812   21.8231 C   0  0  0  0  0  0  0  0  0  0  0  0
   10.8705  -15.7802   21.7032 O   0  0  0  0  0  0  0  0  0  0  0  0
    9.8662  -17.4133   22.9980 N   0  0  0  0  0  0  0  0  0  0  0  0
    9.6030  -16.4807   24.0681 C   0  0  1  0  0  0  0  0  0  0  0  0
    8.1530  -16.3408   24.3003 C   0  0  0  0  0  0  0  0  0  0  0  0
    7.4859  -15.1298   23.9092 C   0  0  0  0  0  0  0  0  0  0  0  0
    6.9718  -14.7667   22.6958 C   0  0  0  0  0  0  0  0  0  0  0  0
    6.4204  -13.5178   22.8163 N   0  0  0  0  0  0  0  0  0  0  0  0
    6.5809  -13.0964   24.0807 C   0  0  0  0  0  0  0  0  0  0  0  0
    6.2102  -11.9277   24.7148 C   0  0  0  0  0  0  0  0  0  0  0  0
    6.4935  -11.7206   26.0660 C   0  0  0  0  0  0  0  0  0  0  0  0
    7.1530  -12.7061   26.7632 C   0  0  0  0  0  0  0  0  0  0  0  0
    7.5082  -13.8525   26.1111 C   0  0  0  0  0  0  0  0  0  0  0  0
    7.2319  -14.0704   24.7677 C   0  0  0  0  0  0  0  0  0  0  0  0
   10.4048  -16.8433   25.2320 C   0  0  0  0  0  0  0  0  0  0  0  0
   11.6035  -17.1544   25.1009 O   0  0  0  0  0  0  0  0  0  0  0  0
   10.8248  -13.9949   27.7740 C   0  0  0  0  0  0  0  0  0  0  0  0
    9.7180  -14.7733   28.4555 C   0  0  2  0  0  0  0  0  0  0  0  0
    8.9895  -13.9531   29.4443 C   0  0  0  0  0  0  0  0  0  0  0  0
   10.0587  -16.1638   28.8228 C   0  0  0  0  0  0  0  0  0  0  0  0
   10.5324  -17.0597   27.7546 C   0  0  2  0  0  0  0  0  0  0  0  0
    9.8071  -16.8380   26.5035 N   0  0  0  0  0  0  0  0  0  0  0  0
   10.5936  -18.4898   27.9874 C   0  0  0  0  0  0  0  0  0  0  0  0
   11.3291  -18.9120   28.9513 O   0  0  0  0  0  0  0  0  0  0  0  0
    9.9440  -19.4935   27.2944 O   0  0  0  0  0  0  0  0  0  0  0  0
  2  1  1  6
  2  3  1  0
  3  4  1  0
  4  5  2  0
  4  8  1  0
  5  6  1  0
  6  7  1  0
  8  7  2  0
  9 10  2  0
  9  2  1  0
 11  9  1  0
 12 13  1  1
 12 11  1  0
 13 14  1  0
 14 15  2  0
 14 22  1  0
 15 16  1  0
 16 17  1  0
 17 18  2  0
 19 18  1  0
 20 19  2  0
 21 22  2  0
 21 20  1  0
 22 17  1  0
 23 12  1  0
 24 23  2  0
 26 25  1  1
 26 28  1  0
 27 26  1  0
 29 28  1  1
 29 30  1  0
 30 23  1  0
 31 33  1  0
 31 29  1  0
 32 31  2  0
M  END
$$$$
