HWL.pdb
     RDKit          3D

 33 35  0  0  1  0  0  0  0  0999 V2000
    8.7316  -18.2580   19.8269 N   0  0  0  0  0  0  0  0  0  0  0  0
   10.0023  -18.1789   20.4973 C   0  0  1  0  0  0  0  0  0  0  0  0
   11.1588  -18.1937   19.5126 C   0  0  0  0  0  0  0  0  0  0  0  0
   11.2517  -19.4781   18.7967 C   0  0  0  0  0  0  0  0  0  0  0  0
   10.4996  -20.6141   18.8994 C   0  0  0  0  0  0  0  0  0  0  0  0
   10.9725  -21.5141   18.0407 N   0  0  0  0  0  0  0  0  0  0  0  0
   12.0144  -20.9685   17.3927 C   0  0  0  0  0  0  0  0  0  0  0  0
   12.1904  -19.7143   17.8545 N   0  0  0  0  0  0  0  0  0  0  0  0
   10.0838  -16.9000   21.2377 C   0  0  0  0  0  0  0  0  0  0  0  0
   10.5807  -15.8950   20.6479 O   0  0  0  0  0  0  0  0  0  0  0  0
    9.6271  -16.7957   22.5536 N   0  0  0  0  0  0  0  0  0  0  0  0
   10.1482  -15.7705   23.4264 C   0  0  1  0  0  0  0  0  0  0  0  0
    9.1482  -14.7089   23.6479 C   0  0  0  0  0  0  0  0  0  0  0  0
    8.0899  -14.9187   24.5968 C   0  0  0  0  0  0  0  0  0  0  0  0
    7.5260  -16.0842   25.0351 C   0  0  0  0  0  0  0  0  0  0  0  0
    6.5559  -15.7765   25.9530 N   0  0  0  0  0  0  0  0  0  0  0  0
    6.5051  -14.4426   26.0950 C   0  0  0  0  0  0  0  0  0  0  0  0
    5.7157  -13.6311   26.8848 C   0  0  0  0  0  0  0  0  0  0  0  0
    5.8561  -12.2424   26.8567 C   0  0  0  0  0  0  0  0  0  0  0  0
    6.8005  -11.6888   26.0237 C   0  0  0  0  0  0  0  0  0  0  0  0
    7.5680  -12.5151   25.2531 C   0  0  0  0  0  0  0  0  0  0  0  0
    7.4380  -13.8976   25.2723 C   0  0  0  0  0  0  0  0  0  0  0  0
   10.6971  -16.3923   24.6268 C   0  0  0  0  0  0  0  0  0  0  0  0
   11.6509  -17.1891   24.5455 O   0  0  0  0  0  0  0  0  0  0  0  0
   11.4960  -13.9415   28.1066 C   0  0  0  0  0  0  0  0  0  0  0  0
   10.1015  -14.4903   28.3287 C   0  0  2  0  0  0  0  0  0  0  0  0
    9.3811  -13.7627   29.3930 C   0  0  0  0  0  0  0  0  0  0  0  0
    9.9912  -15.9638   28.2978 C   0  0  0  0  0  0  0  0  0  0  0  0
   10.5692  -16.6716   27.1432 C   0  0  2  0  0  0  0  0  0  0  0  0
   10.1354  -16.0817   25.8766 N   0  0  0  0  0  0  0  0  0  0  0  0
   10.4290  -18.1111   27.0360 C   0  0  0  0  0  0  0  0  0  0  0  0
    9.6907  -18.5756   26.0939 O   0  0  0  0  0  0  0  0  0  0  0  0
   11.0035  -19.0838   27.8319 O   0  0  0  0  0  0  0  0  0  0  0  0
  2  1  1  6
  2  3  1  0
  3  4  1  0
  4  5  2  0
  4  8  1  0
  5  6  1  0
  6  7  1  0
  8  7  2  0
  9 10  2  0
  9  2  1  0
 11  9  1  0
 12 13  1  1
 12 11  1  0
 13 14  1  0
 14 15  2  0
 14 22  1  0
 15 16  1  0
 16 17  1  0
 17 18  2  0
 19 18  1  0
 20 19  2  0
 21 22  2  0
 21 20  1  0
 22 17  1  0
 23 12  1  0
 24 23  2  0
 26 25  1  1
 26 28  1  0
 27 26  1  0
 29 28  1  1
 29 30  1  0
 30 23  1  0
 31 33  1  0
 31 29  1  0
 32 31  2  0
M  END
$$$$
