HWL.pdb
     RDKit          3D

 33 35  0  0  1  0  0  0  0  0999 V2000
   10.2904  -18.8912   20.0795 N   0  0  0  0  0  0  0  0  0  0  0  0
   10.6823  -17.5108   19.9747 C   0  0  1  0  0  0  0  0  0  0  0  0
   10.2651  -16.9079   18.6443 C   0  0  0  0  0  0  0  0  0  0  0  0
   11.1368  -17.3546   17.5437 C   0  0  0  0  0  0  0  0  0  0  0  0
   11.4653  -18.6107   17.1182 C   0  0  0  0  0  0  0  0  0  0  0  0
   12.2929  -18.5037   16.0816 N   0  0  0  0  0  0  0  0  0  0  0  0
   12.4966  -17.1986   15.8405 C   0  0  0  0  0  0  0  0  0  0  0  0
   11.7865  -16.4865   16.7381 N   0  0  0  0  0  0  0  0  0  0  0  0
   10.0033  -16.7298   21.0328 C   0  0  0  0  0  0  0  0  0  0  0  0
    9.4521  -15.6354   20.7116 O   0  0  0  0  0  0  0  0  0  0  0  0
    9.9671  -17.1810   22.3542 N   0  0  0  0  0  0  0  0  0  0  0  0
    9.4269  -16.3405   23.3963 C   0  0  1  0  0  0  0  0  0  0  0  0
    7.9582  -16.4614   23.4622 C   0  0  0  0  0  0  0  0  0  0  0  0
    7.2293  -15.7175   24.4520 C   0  0  0  0  0  0  0  0  0  0  0  0
    6.4391  -16.1625   25.4748 C   0  0  0  0  0  0  0  0  0  0  0  0
    5.9664  -15.0742   26.1607 N   0  0  0  0  0  0  0  0  0  0  0  0
    6.4470  -13.9606   25.5854 C   0  0  0  0  0  0  0  0  0  0  0  0
    6.2783  -12.6239   25.8857 C   0  0  0  0  0  0  0  0  0  0  0  0
    6.8971  -11.6312   25.1238 C   0  0  0  0  0  0  0  0  0  0  0  0
    7.6845  -12.0067   24.0601 C   0  0  0  0  0  0  0  0  0  0  0  0
    7.8341  -13.3362   23.7854 C   0  0  0  0  0  0  0  0  0  0  0  0
    7.2241  -14.3330   24.5357 C   0  0  0  0  0  0  0  0  0  0  0  0
   10.1456  -16.5929   24.6407 C   0  0  0  0  0  0  0  0  0  0  0  0
   11.3707  -16.8168   24.6281 O   0  0  0  0  0  0  0  0  0  0  0  0
   10.4341  -13.7837   27.6495 C   0  0  0  0  0  0  0  0  0  0  0  0
    9.1732  -14.5524   27.9878 C   0  0  2  0  0  0  0  0  0  0  0  0
    8.3054  -13.8112   28.9253 C   0  0  0  0  0  0  0  0  0  0  0  0
    9.3587  -16.0015   28.2113 C   0  0  0  0  0  0  0  0  0  0  0  0
   10.0535  -16.7737   27.1677 C   0  0  2  0  0  0  0  0  0  0  0  0
    9.4380  -16.5813   25.8545 N   0  0  0  0  0  0  0  0  0  0  0  0
   10.2778  -18.1947   27.3513 C   0  0  0  0  0  0  0  0  0  0  0  0
    9.5689  -19.0106   26.6583 O   0  0  0  0  0  0  0  0  0  0  0  0
   11.1827  -18.8117   28.1939 O   0  0  0  0  0  0  0  0  0  0  0  0
  2  1  1  6
  2  3  1  0
  3  4  1  0
  4  5  2  0
  4  8  1  0
  5  6  1  0
  6  7  1  0
  8  7  2  0
  9 10  2  0
  9  2  1  0
 11  9  1  0
 12 13  1  1
 12 11  1  0
 13 14  1  0
 14 15  2  0
 14 22  1  0
 15 16  1  0
 16 17  1  0
 17 18  2  0
 19 18  1  0
 20 19  2  0
 21 22  2  0
 21 20  1  0
 22 17  1  0
 23 12  1  0
 24 23  2  0
 26 25  1  1
 26 28  1  0
 27 26  1  0
 29 28  1  1
 29 30  1  0
 30 23  1  0
 31 33  1  0
 31 29  1  0
 32 31  2  0
M  END
$$$$
