GQL.pdb
     RDKit          3D

 22 21  0  0  1  0  0  0  0  0999 V2000
   29.1417  -22.8505  -16.9936 N   0  0  0  0  0  0  0  0  0  0  0  0
   27.7401  -22.7330  -17.2383 C   0  0  0  0  0  0  0  0  0  0  0  0
   27.1158  -21.6238  -16.4585 C   0  0  0  0  0  0  0  0  0  0  0  0
   27.8787  -20.8515  -15.8236 O   0  0  0  0  0  0  0  0  0  0  0  0
   25.2336  -17.3063  -15.7297 N   0  0  0  0  0  0  0  0  0  0  0  0
   25.4613  -17.5390  -17.1027 C   0  0  0  0  0  0  0  0  0  0  0  0
   26.1173  -16.6852  -17.7404 O   0  0  0  0  0  0  0  0  0  0  0  0
   24.9430  -18.7686  -17.8070 C   0  0  0  0  0  0  0  0  0  0  0  0
   24.2588  -19.6035  -16.7968 C   0  0  0  0  0  0  0  0  0  0  0  0
   25.0983  -20.2517  -15.7493 C   0  0  2  0  0  0  0  0  0  0  0  0
   25.7266  -21.4103  -16.4058 N   0  0  0  0  0  0  0  0  0  0  0  0
   24.3447  -20.7393  -14.5851 C   0  0  0  0  0  0  0  0  0  0  0  0
   23.5343  -21.6980  -14.7531 O   0  0  0  0  0  0  0  0  0  0  0  0
   25.8436  -20.4899   -9.1013 C   0  0  0  0  0  0  0  0  0  0  0  0
   25.1522  -21.2320  -10.2103 C   0  0  2  0  0  0  0  0  0  0  0  0
   26.2010  -21.6081  -11.2660 C   0  0  0  0  0  0  0  0  0  0  0  0
   24.0753  -20.4170  -10.8176 C   0  0  0  0  0  0  0  0  0  0  0  0
   23.6535  -20.7390  -12.2037 C   0  0  2  0  0  0  0  0  0  0  0  0
   24.4437  -20.2290  -13.2633 N   0  0  0  0  0  0  0  0  0  0  0  0
   22.2143  -20.4807  -12.4544 C   0  0  0  0  0  0  0  0  0  0  0  0
   21.9034  -19.5134  -13.1810 O   0  0  0  0  0  0  0  0  0  0  0  0
   21.2012  -21.2575  -11.9236 O   0  0  0  0  0  0  0  0  0  0  0  0
  1  2  1  0
  2  3  1  0
  3  4  2  0
  5  6  1  0
  6  8  1  0
  7  6  2  0
  8  9  1  0
 10  9  1  6
 11  3  1  0
 11 10  1  0
 12 19  1  0
 12 10  1  0
 13 12  2  0
 15 14  1  1
 15 17  1  0
 15 16  1  0
 18 17  1  1
 18 20  1  0
 18 19  1  0
 20 22  1  0
 21 20  2  0
M  END
$$$$
