GQL.pdb
     RDKit          3D

 22 21  0  0  1  0  0  0  0  0999 V2000
   25.0883  -13.0789  -16.0174 N   0  0  0  0  0  0  0  0  0  0  0  0
   23.7332  -13.2414  -15.5986 C   0  0  0  0  0  0  0  0  0  0  0  0
   22.8630  -12.1076  -16.0294 C   0  0  0  0  0  0  0  0  0  0  0  0
   23.4106  -11.1358  -16.6102 O   0  0  0  0  0  0  0  0  0  0  0  0
   16.8714  -13.0064  -16.4377 N   0  0  0  0  0  0  0  0  0  0  0  0
   16.8343  -11.6213  -16.7049 C   0  0  0  0  0  0  0  0  0  0  0  0
   15.7253  -11.1054  -16.9692 O   0  0  0  0  0  0  0  0  0  0  0  0
   18.0755  -10.7637  -16.6800 C   0  0  0  0  0  0  0  0  0  0  0  0
   19.2171  -11.6445  -16.3533 C   0  0  0  0  0  0  0  0  0  0  0  0
   20.5793  -11.0389  -16.3435 C   0  0  2  0  0  0  0  0  0  0  0  0
   21.4731  -12.0828  -15.8147 N   0  0  0  0  0  0  0  0  0  0  0  0
   20.7079   -9.8508  -15.4876 C   0  0  0  0  0  0  0  0  0  0  0  0
   20.7934  -10.0192  -14.2352 O   0  0  0  0  0  0  0  0  0  0  0  0
   21.8787   -6.2806  -17.7779 C   0  0  0  0  0  0  0  0  0  0  0  0
   22.2471   -5.6523  -16.4632 C   0  0  2  0  0  0  0  0  0  0  0  0
   23.6046   -4.9545  -16.6257 C   0  0  0  0  0  0  0  0  0  0  0  0
   22.3093   -6.6605  -15.3803 C   0  0  0  0  0  0  0  0  0  0  0  0
   21.0798   -7.4340  -15.0754 C   0  0  2  0  0  0  0  0  0  0  0  0
   20.7492   -8.5055  -15.9414 N   0  0  0  0  0  0  0  0  0  0  0  0
   19.8939   -6.5778  -14.8276 C   0  0  0  0  0  0  0  0  0  0  0  0
   18.8898   -6.7310  -15.5546 O   0  0  0  0  0  0  0  0  0  0  0  0
   19.8457   -5.6194  -13.8321 O   0  0  0  0  0  0  0  0  0  0  0  0
  1  2  1  0
  2  3  1  0
  3  4  2  0
  5  6  1  0
  6  8  1  0
  7  6  2  0
  8  9  1  0
 10  9  1  1
 11  3  1  0
 11 10  1  0
 12 19  1  0
 12 10  1  0
 13 12  2  0
 15 14  1  6
 15 17  1  0
 15 16  1  0
 18 17  1  6
 18 20  1  0
 18 19  1  0
 20 22  1  0
 21 20  2  0
M  END
$$$$
