GQL.pdb
     RDKit          3D

 22 21  0  0  1  0  0  0  0  0999 V2000
   28.9783  -33.0874  -15.4441 N   0  0  0  0  0  0  0  0  0  0  0  0
   28.2697  -31.8499  -15.3753 C   0  0  0  0  0  0  0  0  0  0  0  0
   28.6350  -30.9208  -16.4851 C   0  0  0  0  0  0  0  0  0  0  0  0
   28.8991  -31.4230  -17.6074 O   0  0  0  0  0  0  0  0  0  0  0  0
   25.8542  -27.1196  -19.8107 N   0  0  0  0  0  0  0  0  0  0  0  0
   25.6963  -27.1060  -18.4085 C   0  0  0  0  0  0  0  0  0  0  0  0
   25.0774  -26.1456  -17.8982 O   0  0  0  0  0  0  0  0  0  0  0  0
   26.2452  -28.2004  -17.5267 C   0  0  0  0  0  0  0  0  0  0  0  0
   27.4645  -28.7252  -18.1773 C   0  0  0  0  0  0  0  0  0  0  0  0
   28.7577  -28.5740  -17.4511 C   0  0  2  0  0  0  0  0  0  0  0  0
   28.6949  -29.5244  -16.3282 N   0  0  0  0  0  0  0  0  0  0  0  0
   28.9897  -27.2309  -16.9007 C   0  0  0  0  0  0  0  0  0  0  0  0
   28.4455  -26.9321  -15.7967 O   0  0  0  0  0  0  0  0  0  0  0  0
   32.2919  -26.0264  -14.7592 C   0  0  0  0  0  0  0  0  0  0  0  0
   32.5343  -25.7514  -16.2167 C   0  0  2  0  0  0  0  0  0  0  0  0
   33.9909  -25.2980  -16.3862 C   0  0  0  0  0  0  0  0  0  0  0  0
   31.6070  -24.7192  -16.7341 C   0  0  0  0  0  0  0  0  0  0  0  0
   30.1609  -25.0477  -16.7951 C   0  0  2  0  0  0  0  0  0  0  0  0
   29.7847  -26.2178  -17.4999 N   0  0  0  0  0  0  0  0  0  0  0  0
   29.3146  -23.8988  -17.2010 C   0  0  0  0  0  0  0  0  0  0  0  0
   28.5459  -24.0436  -18.1750 O   0  0  0  0  0  0  0  0  0  0  0  0
   29.3349  -22.6767  -16.5547 O   0  0  0  0  0  0  0  0  0  0  0  0
  1  2  1  0
  2  3  1  0
  3  4  2  0
  5  6  1  0
  6  8  1  0
  7  6  2  0
  8  9  1  0
 10  9  1  1
 11  3  1  0
 11 10  1  0
 12 19  1  0
 12 10  1  0
 13 12  2  0
 15 14  1  1
 15 17  1  0
 15 16  1  0
 18 17  1  6
 18 20  1  0
 18 19  1  0
 20 22  1  0
 21 20  2  0
M  END
$$$$
