GQL.pdb
     RDKit          3D

 22 21  0  0  1  0  0  0  0  0999 V2000
   14.0920  -11.7626  -17.4785 N   0  0  0  0  0  0  0  0  0  0  0  0
   14.4707  -10.6623  -16.6515 C   0  0  0  0  0  0  0  0  0  0  0  0
   15.7489  -10.0302  -17.0929 C   0  0  0  0  0  0  0  0  0  0  0  0
   16.5374  -10.7231  -17.7855 O   0  0  0  0  0  0  0  0  0  0  0  0
   17.5339   -3.9637  -17.4190 N   0  0  0  0  0  0  0  0  0  0  0  0
   17.4089   -4.5959  -18.6743 C   0  0  0  0  0  0  0  0  0  0  0  0
   17.5672   -3.8972  -19.7003 O   0  0  0  0  0  0  0  0  0  0  0  0
   17.0950   -6.0658  -18.8069 C   0  0  0  0  0  0  0  0  0  0  0  0
   16.9710   -6.6182  -17.4413 C   0  0  0  0  0  0  0  0  0  0  0  0
   17.3340   -8.0496  -17.2367 C   0  0  2  0  0  0  0  0  0  0  0  0
   16.1025   -8.7077  -16.7694 N   0  0  0  0  0  0  0  0  0  0  0  0
   18.3810   -8.2708  -16.2289 C   0  0  0  0  0  0  0  0  0  0  0  0
   18.0419   -8.3092  -15.0092 O   0  0  0  0  0  0  0  0  0  0  0  0
   23.9047  -10.7195  -15.0780 C   0  0  0  0  0  0  0  0  0  0  0  0
   22.8087   -9.7967  -14.6244 C   0  0  2  0  0  0  0  0  0  0  0  0
   22.2351  -10.3395  -13.3082 C   0  0  0  0  0  0  0  0  0  0  0  0
   21.7422   -9.6805  -15.6452 C   0  0  0  0  0  0  0  0  0  0  0  0
   20.7116   -8.6284  -15.4611 C   0  0  2  0  0  0  0  0  0  0  0  0
   19.7636   -8.4523  -16.4991 N   0  0  0  0  0  0  0  0  0  0  0  0
   21.2749   -7.3219  -15.0410 C   0  0  0  0  0  0  0  0  0  0  0  0
   21.4884   -7.1318  -13.8250 O   0  0  0  0  0  0  0  0  0  0  0  0
   21.5751   -6.3052  -15.9287 O   0  0  0  0  0  0  0  0  0  0  0  0
  1  2  1  0
  2  3  1  0
  3  4  2  0
  5  6  1  0
  6  8  1  0
  7  6  2  0
  8  9  1  0
 10  9  1  1
 11  3  1  0
 11 10  1  0
 12 19  1  0
 12 10  1  0
 13 12  2  0
 15 14  1  6
 15 17  1  0
 15 16  1  0
 18 17  1  6
 18 20  1  0
 18 19  1  0
 20 22  1  0
 21 20  2  0
M  END
$$$$
