GQL.pdb
     RDKit          3D

 22 21  0  0  1  0  0  0  0  0999 V2000
   26.9707  -16.9339  -15.8734 N   0  0  0  0  0  0  0  0  0  0  0  0
   27.5364  -17.6901  -14.8029 C   0  0  0  0  0  0  0  0  0  0  0  0
   26.5073  -18.4550  -14.0386 C   0  0  0  0  0  0  0  0  0  0  0  0
   25.3548  -17.9598  -13.9494 O   0  0  0  0  0  0  0  0  0  0  0  0
   25.5435  -24.2683  -14.5262 N   0  0  0  0  0  0  0  0  0  0  0  0
   25.6894  -23.1755  -15.4070 C   0  0  0  0  0  0  0  0  0  0  0  0
   25.7316  -23.4144  -16.6346 O   0  0  0  0  0  0  0  0  0  0  0  0
   25.7938  -21.7534  -14.9138 C   0  0  0  0  0  0  0  0  0  0  0  0
   25.6815  -21.7852  -13.4401 C   0  0  0  0  0  0  0  0  0  0  0  0
   25.7571  -20.4872  -12.7107 C   0  0  2  0  0  0  0  0  0  0  0  0
   26.7713  -19.6915  -13.4222 N   0  0  0  0  0  0  0  0  0  0  0  0
   26.1722  -20.6054  -11.3055 C   0  0  0  0  0  0  0  0  0  0  0  0
   27.2621  -21.1973  -11.0491 O   0  0  0  0  0  0  0  0  0  0  0  0
   28.5794  -20.6057   -7.8844 C   0  0  0  0  0  0  0  0  0  0  0  0
   27.6598  -19.4279   -8.0455 C   0  0  2  0  0  0  0  0  0  0  0  0
   28.0656  -18.3560   -7.0246 C   0  0  0  0  0  0  0  0  0  0  0  0
   26.2439  -19.8168   -7.8530 C   0  0  0  0  0  0  0  0  0  0  0  0
   25.6049  -20.6621   -8.8923 C   0  0  2  0  0  0  0  0  0  0  0  0
   25.4540  -20.1059  -10.1865 N   0  0  0  0  0  0  0  0  0  0  0  0
   24.3376  -21.2884   -8.4420 C   0  0  0  0  0  0  0  0  0  0  0  0
   24.3352  -21.9077   -7.3571 O   0  0  0  0  0  0  0  0  0  0  0  0
   23.1602  -21.2201   -9.1635 O   0  0  0  0  0  0  0  0  0  0  0  0
  1  2  1  0
  2  3  1  0
  3  4  2  0
  5  6  1  0
  6  8  1  0
  7  6  2  0
  8  9  1  0
 10  9  1  6
 11  3  1  0
 11 10  1  0
 12 19  1  0
 12 10  1  0
 13 12  2  0
 15 14  1  1
 15 17  1  0
 15 16  1  0
 18 17  1  1
 18 20  1  0
 18 19  1  0
 20 22  1  0
 21 20  2  0
M  END
$$$$
