GQL.pdb
     RDKit          3D

 22 21  0  0  1  0  0  0  0  0999 V2000
   27.7058  -20.1893  -14.8421 N   0  0  0  0  0  0  0  0  0  0  0  0
   27.4087  -21.0597  -13.7502 C   0  0  0  0  0  0  0  0  0  0  0  0
   26.7885  -20.3396  -12.5990 C   0  0  0  0  0  0  0  0  0  0  0  0
   26.8121  -19.0824  -12.6122 O   0  0  0  0  0  0  0  0  0  0  0  0
   21.4814  -20.4578   -9.8304 N   0  0  0  0  0  0  0  0  0  0  0  0
   21.8872  -20.2516  -11.1661 C   0  0  0  0  0  0  0  0  0  0  0  0
   21.0146  -19.9169  -11.9982 O   0  0  0  0  0  0  0  0  0  0  0  0
   23.3202  -20.4217  -11.6068 C   0  0  0  0  0  0  0  0  0  0  0  0
   24.1188  -20.7446  -10.4053 C   0  0  0  0  0  0  0  0  0  0  0  0
   25.5449  -20.3108  -10.3835 C   0  0  2  0  0  0  0  0  0  0  0  0
   26.1866  -21.0023  -11.5141 N   0  0  0  0  0  0  0  0  0  0  0  0
   26.2691  -20.6721   -9.1564 C   0  0  0  0  0  0  0  0  0  0  0  0
   26.5477  -21.8919   -8.9606 O   0  0  0  0  0  0  0  0  0  0  0  0
   29.2289  -18.4893   -4.1617 C   0  0  0  0  0  0  0  0  0  0  0  0
   28.8760  -19.6761   -5.0135 C   0  0  2  0  0  0  0  0  0  0  0  0
   30.1555  -20.4848   -5.2679 C   0  0  0  0  0  0  0  0  0  0  0  0
   28.2635  -19.2589   -6.2956 C   0  0  0  0  0  0  0  0  0  0  0  0
   27.3407  -20.2064   -6.9692 C   0  0  2  0  0  0  0  0  0  0  0  0
   26.6972  -19.7642   -8.1514 N   0  0  0  0  0  0  0  0  0  0  0  0
   26.3631  -20.8311   -6.0447 C   0  0  0  0  0  0  0  0  0  0  0  0
   25.2360  -20.3049   -5.9297 O   0  0  0  0  0  0  0  0  0  0  0  0
   26.6380  -21.9662   -5.3047 O   0  0  0  0  0  0  0  0  0  0  0  0
  1  2  1  0
  2  3  1  0
  3  4  2  0
  5  6  1  0
  6  8  1  0
  7  6  2  0
  8  9  1  0
 10  9  1  1
 11  3  1  0
 11 10  1  0
 12 19  1  0
 12 10  1  0
 13 12  2  0
 15 14  1  1
 15 17  1  0
 15 16  1  0
 18 17  1  1
 18 20  1  0
 18 19  1  0
 20 22  1  0
 21 20  2  0
M  END
$$$$
