PLA.pdb
     RDKit          3D

 21 21  0  0  1  0  0  0  0  0999 V2000
    7.3239  -14.8537   21.0095 N   0  0  0  0  0  0  0  0  0  0  0  0
    6.6676  -14.3234   19.8305 C   0  0  0  0  0  0  0  0  0  0  0  0
    7.5355  -13.1827   19.3383 C   0  0  0  0  0  0  0  0  0  0  0  0
    8.1714  -12.7406   20.6528 C   0  0  0  0  0  0  0  0  0  0  0  0
    8.5299  -14.1093   21.2051 C   0  0  1  0  0  0  0  0  0  0  0  0
    8.9626  -14.0461   22.6143 C   0  0  0  0  0  0  0  0  0  0  0  0
   10.0920  -13.6144   22.9596 O   0  0  0  0  0  0  0  0  0  0  0  0
    8.0187  -11.8795   26.4245 C   0  0  0  0  0  0  0  0  0  0  0  0
    6.8570  -12.6068   25.7340 C   0  0  2  0  0  0  0  0  0  0  0  0
    5.5713  -12.2809   26.4611 C   0  0  0  0  0  0  0  0  0  0  0  0
    7.1395  -14.0728   25.7580 C   0  0  0  0  0  0  0  0  0  0  0  0
    8.4202  -14.4550   25.0523 C   0  0  2  0  0  0  0  0  0  0  0  0
    8.0673  -14.4905   23.6170 N   0  0  0  0  0  0  0  0  0  0  0  0
    8.8942  -15.8044   25.4012 C   0  0  0  0  0  0  0  0  0  0  0  0
    8.9609  -16.1255   26.6281 O   0  0  0  0  0  0  0  0  0  0  0  0
    9.6786  -19.0463   23.7172 C   0  0  0  0  0  0  0  0  0  0  0  0
    9.6979  -18.0722   24.8761 C   0  0  2  0  0  0  0  0  0  0  0  0
    9.2812  -16.7668   24.4366 N   0  0  0  0  0  0  0  0  0  0  0  0
   11.0883  -18.0412   25.4087 C   0  0  0  0  0  0  0  0  0  0  0  0
   11.7544  -16.9940   25.3384 O   0  0  0  0  0  0  0  0  0  0  0  0
   11.5988  -19.2010   25.9734 O   0  0  0  0  0  0  0  0  0  0  0  0
  1  2  1  0
  3  2  1  0
  4  5  1  0
  4  3  1  0
  5  1  1  0
  5  6  1  1
  6 13  1  0
  7  6  2  0
  9  8  1  1
  9 10  1  0
  9 11  1  0
 12 11  1  1
 12 13  1  0
 14 12  1  0
 15 14  2  0
 17 16  1  6
 17 18  1  0
 17 19  1  0
 18 14  1  0
 19 21  1  0
 20 19  2  0
M  END
$$$$
