PLA.pdb
     RDKit          3D

 21 21  0  0  1  0  0  0  0  0999 V2000
    7.5048  -19.0241   20.5008 N   0  0  0  0  0  0  0  0  0  0  0  0
    6.6029  -19.5649   19.5027 C   0  0  0  0  0  0  0  0  0  0  0  0
    7.0736  -19.0241   18.1676 C   0  0  0  0  0  0  0  0  0  0  0  0
    7.7113  -17.7129   18.6170 C   0  0  0  0  0  0  0  0  0  0  0  0
    8.4820  -18.2333   19.8178 C   0  0  1  0  0  0  0  0  0  0  0  0
    9.0371  -17.1411   20.6402 C   0  0  0  0  0  0  0  0  0  0  0  0
   10.2685  -16.8938   20.6997 O   0  0  0  0  0  0  0  0  0  0  0  0
    6.8439  -12.0261   20.7886 C   0  0  0  0  0  0  0  0  0  0  0  0
    7.9118  -13.1277   20.8247 C   0  0  2  0  0  0  0  0  0  0  0  0
    7.9752  -13.7955   19.4690 C   0  0  0  0  0  0  0  0  0  0  0  0
    7.5458  -14.1023   21.8951 C   0  0  0  0  0  0  0  0  0  0  0  0
    8.6027  -15.1533   22.1451 C   0  0  2  0  0  0  0  0  0  0  0  0
    8.1441  -16.3402   21.3922 N   0  0  0  0  0  0  0  0  0  0  0  0
    8.6925  -15.5611   23.5569 C   0  0  0  0  0  0  0  0  0  0  0  0
    9.0568  -14.6990   24.4153 O   0  0  0  0  0  0  0  0  0  0  0  0
    7.1897  -17.5917   25.9850 C   0  0  0  0  0  0  0  0  0  0  0  0
    8.5267  -17.1754   25.4092 C   0  0  2  0  0  0  0  0  0  0  0  0
    8.3927  -16.8695   24.0094 N   0  0  0  0  0  0  0  0  0  0  0  0
    9.4748  -18.3035   25.6242 C   0  0  0  0  0  0  0  0  0  0  0  0
    9.7064  -18.7054   26.7775 O   0  0  0  0  0  0  0  0  0  0  0  0
   10.0754  -18.8747   24.5117 O   0  0  0  0  0  0  0  0  0  0  0  0
  1  2  1  0
  3  2  1  0
  4  5  1  0
  4  3  1  0
  5  1  1  0
  5  6  1  1
  6 13  1  0
  7  6  2  0
  9  8  1  6
  9 10  1  0
  9 11  1  0
 12 11  1  1
 12 13  1  0
 14 12  1  0
 15 14  2  0
 17 16  1  6
 17 18  1  0
 17 19  1  0
 18 14  1  0
 19 21  1  0
 20 19  2  0
M  END
$$$$
