PLA.pdb
     RDKit          3D

 21 21  0  0  1  0  0  0  0  0999 V2000
    7.3980  -14.8666   21.0312 N   0  0  0  0  0  0  0  0  0  0  0  0
    6.7428  -14.3535   19.8439 C   0  0  0  0  0  0  0  0  0  0  0  0
    7.5809  -13.1840   19.3682 C   0  0  0  0  0  0  0  0  0  0  0  0
    8.1825  -12.7262   20.6935 C   0  0  0  0  0  0  0  0  0  0  0  0
    8.5765  -14.0846   21.2471 C   0  0  1  0  0  0  0  0  0  0  0  0
    8.9857  -14.0124   22.6629 C   0  0  0  0  0  0  0  0  0  0  0  0
   10.1159  -13.5952   23.0231 O   0  0  0  0  0  0  0  0  0  0  0  0
    7.9546  -11.8362   26.4648 C   0  0  0  0  0  0  0  0  0  0  0  0
    6.8199  -12.5855   25.7534 C   0  0  2  0  0  0  0  0  0  0  0  0
    5.5131  -12.2730   26.4479 C   0  0  0  0  0  0  0  0  0  0  0  0
    7.1229  -14.0470   25.7954 C   0  0  0  0  0  0  0  0  0  0  0  0
    8.4081  -14.4201   25.0930 C   0  0  2  0  0  0  0  0  0  0  0  0
    8.0660  -14.4308   23.6547 N   0  0  0  0  0  0  0  0  0  0  0  0
    8.8767  -15.7762   25.4228 C   0  0  0  0  0  0  0  0  0  0  0  0
    9.0196  -16.0880   26.6456 O   0  0  0  0  0  0  0  0  0  0  0  0
    9.4356  -19.0571   23.7334 C   0  0  0  0  0  0  0  0  0  0  0  0
    9.5916  -18.0664   24.8677 C   0  0  2  0  0  0  0  0  0  0  0  0
    9.1776  -16.7550   24.4440 N   0  0  0  0  0  0  0  0  0  0  0  0
   11.0252  -18.0731   25.2707 C   0  0  0  0  0  0  0  0  0  0  0  0
   11.7193  -17.0553   25.1042 O   0  0  0  0  0  0  0  0  0  0  0  0
   11.5434  -19.2337   25.8266 O   0  0  0  0  0  0  0  0  0  0  0  0
  1  2  1  0
  3  2  1  0
  4  5  1  0
  4  3  1  0
  5  1  1  0
  5  6  1  1
  6 13  1  0
  7  6  2  0
  9  8  1  1
  9 10  1  0
  9 11  1  0
 12 11  1  1
 12 13  1  0
 14 12  1  0
 15 14  2  0
 17 16  1  6
 17 18  1  0
 17 19  1  0
 18 14  1  0
 19 21  1  0
 20 19  2  0
M  END
$$$$
