PLA.pdb
     RDKit          3D

 21 21  0  0  1  0  0  0  0  0999 V2000
    7.1811  -15.5589   20.9244 N   0  0  0  0  0  0  0  0  0  0  0  0
    6.5782  -15.2457   19.6436 C   0  0  0  0  0  0  0  0  0  0  0  0
    7.4380  -14.1632   19.0228 C   0  0  0  0  0  0  0  0  0  0  0  0
    7.9832  -13.4962   20.2821 C   0  0  0  0  0  0  0  0  0  0  0  0
    8.3506  -14.7465   21.0622 C   0  0  1  0  0  0  0  0  0  0  0  0
    8.6991  -14.4466   22.4643 C   0  0  0  0  0  0  0  0  0  0  0  0
    9.8758  -14.2026   22.8348 O   0  0  0  0  0  0  0  0  0  0  0  0
    5.3144  -12.2329   26.9940 C   0  0  0  0  0  0  0  0  0  0  0  0
    6.7268  -12.6965   26.6125 C   0  0  2  0  0  0  0  0  0  0  0  0
    7.6813  -11.5315   26.7529 C   0  0  0  0  0  0  0  0  0  0  0  0
    6.6914  -13.2053   25.2091 C   0  0  0  0  0  0  0  0  0  0  0  0
    7.9053  -14.0218   24.8296 C   0  0  2  0  0  0  0  0  0  0  0  0
    7.6641  -14.4337   23.4303 N   0  0  0  0  0  0  0  0  0  0  0  0
    8.0397  -15.2603   25.6142 C   0  0  0  0  0  0  0  0  0  0  0  0
    8.2361  -15.1674   26.8654 O   0  0  0  0  0  0  0  0  0  0  0  0
    7.2280  -18.8513   25.2897 C   0  0  0  0  0  0  0  0  0  0  0  0
    7.9998  -17.7049   25.9083 C   0  0  2  0  0  0  0  0  0  0  0  0
    7.9609  -16.5547   25.0444 N   0  0  0  0  0  0  0  0  0  0  0  0
    9.3981  -18.1717   26.1188 C   0  0  0  0  0  0  0  0  0  0  0  0
   10.3263  -17.6559   25.4724 O   0  0  0  0  0  0  0  0  0  0  0  0
    9.6186  -19.1819   27.0437 O   0  0  0  0  0  0  0  0  0  0  0  0
  1  2  1  0
  3  2  1  0
  4  5  1  0
  4  3  1  0
  5  1  1  0
  5  6  1  1
  6 13  1  0
  7  6  2  0
  9  8  1  6
  9 10  1  0
  9 11  1  0
 12 11  1  1
 12 13  1  0
 14 12  1  0
 15 14  2  0
 17 16  1  6
 17 18  1  0
 17 19  1  0
 18 14  1  0
 19 21  1  0
 20 19  2  0
M  END
$$$$
