PLA.pdb
     RDKit          3D

 21 21  0  0  1  0  0  0  0  0999 V2000
    7.2648  -14.9050   20.9456 N   0  0  0  0  0  0  0  0  0  0  0  0
    6.6170  -14.3466   19.7748 C   0  0  0  0  0  0  0  0  0  0  0  0
    7.4603  -13.1623   19.3472 C   0  0  0  0  0  0  0  0  0  0  0  0
    8.0559  -12.7555   20.6917 C   0  0  0  0  0  0  0  0  0  0  0  0
    8.4438  -14.1345   21.1965 C   0  0  1  0  0  0  0  0  0  0  0  0
    8.8458  -14.1158   22.6161 C   0  0  0  0  0  0  0  0  0  0  0  0
   10.0025  -13.7951   22.9907 O   0  0  0  0  0  0  0  0  0  0  0  0
    7.7960  -11.9159   26.4918 C   0  0  0  0  0  0  0  0  0  0  0  0
    6.6492  -12.5922   25.7285 C   0  0  2  0  0  0  0  0  0  0  0  0
    5.3415  -12.2640   26.4140 C   0  0  0  0  0  0  0  0  0  0  0  0
    6.9001  -14.0640   25.7105 C   0  0  0  0  0  0  0  0  0  0  0  0
    8.1986  -14.4494   25.0400 C   0  0  2  0  0  0  0  0  0  0  0  0
    7.8875  -14.4743   23.5948 N   0  0  0  0  0  0  0  0  0  0  0  0
    8.6547  -15.8036   25.3942 C   0  0  0  0  0  0  0  0  0  0  0  0
    8.7567  -16.1072   26.6232 O   0  0  0  0  0  0  0  0  0  0  0  0
    9.3821  -19.0737   23.7278 C   0  0  0  0  0  0  0  0  0  0  0  0
    9.4092  -18.0904   24.8789 C   0  0  2  0  0  0  0  0  0  0  0  0
    8.9867  -16.7893   24.4326 N   0  0  0  0  0  0  0  0  0  0  0  0
   10.8038  -18.0531   25.3999 C   0  0  0  0  0  0  0  0  0  0  0  0
   11.4717  -17.0090   25.3051 O   0  0  0  0  0  0  0  0  0  0  0  0
   11.3160  -19.2036   25.9819 O   0  0  0  0  0  0  0  0  0  0  0  0
  1  2  1  0
  3  2  1  0
  4  5  1  0
  4  3  1  0
  5  1  1  0
  5  6  1  1
  6 13  1  0
  7  6  2  0
  9  8  1  1
  9 10  1  0
  9 11  1  0
 12 11  1  1
 12 13  1  0
 14 12  1  0
 15 14  2  0
 17 16  1  6
 17 18  1  0
 17 19  1  0
 18 14  1  0
 19 21  1  0
 20 19  2  0
M  END
$$$$
