PLA.pdb
     RDKit          3D

 21 21  0  0  1  0  0  0  0  0999 V2000
    7.1952  -14.8507   20.7552 N   0  0  0  0  0  0  0  0  0  0  0  0
    6.6052  -14.1904   19.6071 C   0  0  0  0  0  0  0  0  0  0  0  0
    7.5988  -13.1340   19.1677 C   0  0  0  0  0  0  0  0  0  0  0  0
    8.2802  -12.8338   20.4994 C   0  0  0  0  0  0  0  0  0  0  0  0
    8.4786  -14.2603   20.9815 C   0  0  1  0  0  0  0  0  0  0  0  0
    8.9145  -14.3175   22.3900 C   0  0  0  0  0  0  0  0  0  0  0  0
   10.1131  -14.1621   22.7372 O   0  0  0  0  0  0  0  0  0  0  0  0
    8.1807  -12.0679   26.4115 C   0  0  0  0  0  0  0  0  0  0  0  0
    6.9682  -12.5624   25.6110 C   0  0  2  0  0  0  0  0  0  0  0  0
    5.7029  -12.1104   26.3057 C   0  0  0  0  0  0  0  0  0  0  0  0
    7.0388  -14.0512   25.5226 C   0  0  0  0  0  0  0  0  0  0  0  0
    8.2816  -14.5590   24.8284 C   0  0  2  0  0  0  0  0  0  0  0  0
    7.9411  -14.5573   23.3897 N   0  0  0  0  0  0  0  0  0  0  0  0
    8.6145  -15.9496   25.1790 C   0  0  0  0  0  0  0  0  0  0  0  0
    7.7095  -16.8346   25.0755 O   0  0  0  0  0  0  0  0  0  0  0  0
   11.3943  -18.2324   25.3162 C   0  0  0  0  0  0  0  0  0  0  0  0
   10.1185  -17.7353   25.9624 C   0  0  2  0  0  0  0  0  0  0  0  0
    9.8960  -16.3536   25.6273 N   0  0  0  0  0  0  0  0  0  0  0  0
   10.2654  -17.9144   27.4335 C   0  0  0  0  0  0  0  0  0  0  0  0
   10.1960  -16.9278   28.1867 O   0  0  0  0  0  0  0  0  0  0  0  0
   10.4778  -19.1966   27.9187 O   0  0  0  0  0  0  0  0  0  0  0  0
  1  2  1  0
  3  2  1  0
  4  5  1  0
  4  3  1  0
  5  1  1  0
  5  6  1  1
  6 13  1  0
  7  6  2  0
  9  8  1  1
  9 10  1  0
  9 11  1  0
 12 11  1  1
 12 13  1  0
 14 12  1  0
 15 14  2  0
 17 16  1  6
 17 18  1  0
 17 19  1  0
 18 14  1  0
 19 21  1  0
 20 19  2  0
M  END
$$$$
