ARQ.pdb
     RDKit          3D

 26 25  0  0  1  0  0  0  0  0999 V2000
   25.7687  -18.7047  -18.3576 C   0  0  0  0  0  0  0  0  0  0  0  0
   27.0061  -19.4403  -17.8260 C   0  0  2  0  0  0  0  0  0  0  0  0
   27.4189  -20.3361  -18.8864 N   0  0  0  0  0  0  0  0  0  0  0  0
   26.6766  -20.1976  -16.6148 C   0  0  0  0  0  0  0  0  0  0  0  0
   26.0916  -21.3261  -16.7685 O   0  0  0  0  0  0  0  0  0  0  0  0
   31.0705  -22.9877  -10.4920 N   0  0  0  0  0  0  0  0  0  0  0  0
   30.5788  -21.7105  -10.1007 C   0  0  0  0  0  0  0  0  0  0  0  0
   30.7512  -21.2608   -8.9190 N   0  0  0  0  0  0  0  0  0  0  0  0
   29.8803  -20.9292  -11.0628 N   0  0  0  0  0  0  0  0  0  0  0  0
   29.6242  -21.4324  -12.3963 C   0  0  0  0  0  0  0  0  0  0  0  0
   28.9980  -20.3380  -13.2723 C   0  0  0  0  0  0  0  0  0  0  0  0
   27.5196  -20.3447  -12.9846 C   0  0  0  0  0  0  0  0  0  0  0  0
   26.6799  -20.5773  -14.2025 C   0  0  2  0  0  0  0  0  0  0  0  0
   26.9794  -19.7293  -15.3017 N   0  0  0  0  0  0  0  0  0  0  0  0
   25.2563  -20.2925  -13.7964 C   0  0  0  0  0  0  0  0  0  0  0  0
   24.8411  -19.1068  -13.6191 O   0  0  0  0  0  0  0  0  0  0  0  0
   30.4182  -20.3125   -8.6730 N   0  0  0  0  0  0  0  0  0  0  0  0
   20.7210  -24.4686  -14.7501 C   0  0  0  0  0  0  0  0  0  0  0  0
   20.0876  -23.5856  -13.8399 O   0  0  0  0  0  0  0  0  0  0  0  0
   18.9070  -23.8315  -13.4895 C   0  0  0  0  0  0  0  0  0  0  0  0
   20.8047  -22.4280  -13.3272 C   0  0  0  0  0  0  0  0  0  0  0  0
   22.2298  -22.2960  -13.6684 C   0  0  1  0  0  0  0  0  0  0  0  0
   22.9933  -21.1239  -13.1863 N   0  0  0  0  0  0  0  0  0  0  0  0
   24.3913  -21.3775  -13.6169 C   0  0  0  0  0  0  0  0  0  0  0  0
   22.9468  -20.7666  -11.7801 O   0  0  0  0  0  0  0  0  0  0  0  0
   23.7233  -21.2338  -10.9157 O   0  0  0  0  0  0  0  0  0  0  0  0
  2  1  1  6
  2  3  1  0
  4  2  1  0
  5  4  2  0
  6  7  1  0
  7  9  1  0
  7  8  2  0
  9 10  1  0
 10 11  1  0
 11 12  1  0
 13 12  1  1
 13 14  1  0
 14  4  1  0
 15 13  1  0
 15 16  2  0
 17 18  1  0
 18 20  1  0
 19 18  2  0
 20 21  1  0
 22 21  1  6
 22 23  1  0
 23 15  1  0
 24 22  1  0
 25 24  2  0
 26 24  1  0
M  END
$$$$
