ARQ.pdb
     RDKit          3D

 26 25  0  0  1  0  0  0  0  0999 V2000
   25.8424  -22.4708  -13.6603 C   0  0  0  0  0  0  0  0  0  0  0  0
   25.8623  -21.2698  -12.7052 C   0  0  2  0  0  0  0  0  0  0  0  0
   25.6948  -21.8197  -11.3759 N   0  0  0  0  0  0  0  0  0  0  0  0
   24.7705  -20.3428  -13.0175 C   0  0  0  0  0  0  0  0  0  0  0  0
   23.6573  -20.5203  -12.4102 O   0  0  0  0  0  0  0  0  0  0  0  0
   26.5170  -13.9244  -15.3990 N   0  0  0  0  0  0  0  0  0  0  0  0
   26.7695  -14.7529  -16.5286 C   0  0  0  0  0  0  0  0  0  0  0  0
   27.9282  -14.8275  -17.0577 N   0  0  0  0  0  0  0  0  0  0  0  0
   25.6925  -15.5098  -17.0683 N   0  0  0  0  0  0  0  0  0  0  0  0
   24.3660  -15.4460  -16.4909 C   0  0  0  0  0  0  0  0  0  0  0  0
   23.8940  -16.8461  -16.0733 C   0  0  0  0  0  0  0  0  0  0  0  0
   24.2389  -17.0036  -14.6156 C   0  0  0  0  0  0  0  0  0  0  0  0
   23.8448  -18.3347  -14.0538 C   0  0  2  0  0  0  0  0  0  0  0  0
   24.9047  -19.2747  -13.9537 N   0  0  0  0  0  0  0  0  0  0  0  0
   22.8274  -18.9117  -15.0050 C   0  0  0  0  0  0  0  0  0  0  0  0
   23.1637  -19.3683  -16.1399 O   0  0  0  0  0  0  0  0  0  0  0  0
   28.1036  -15.4979  -17.8261 N   0  0  0  0  0  0  0  0  0  0  0  0
   22.8841  -23.5681  -13.7267 C   0  0  0  0  0  0  0  0  0  0  0  0
   21.5676  -23.7544  -14.2183 O   0  0  0  0  0  0  0  0  0  0  0  0
   21.0883  -24.9151  -14.2232 C   0  0  0  0  0  0  0  0  0  0  0  0
   20.7994  -22.6152  -14.6972 C   0  0  0  0  0  0  0  0  0  0  0  0
   21.4112  -21.2811  -14.5931 C   0  0  1  0  0  0  0  0  0  0  0  0
   20.6353  -20.0859  -14.9916 N   0  0  0  0  0  0  0  0  0  0  0  0
   21.4870  -18.9333  -14.6043 C   0  0  0  0  0  0  0  0  0  0  0  0
   19.2816  -19.9121  -14.4974 O   0  0  0  0  0  0  0  0  0  0  0  0
   18.2980  -20.5670  -14.9125 O   0  0  0  0  0  0  0  0  0  0  0  0
  2  1  1  6
  2  3  1  0
  4  2  1  0
  5  4  2  0
  6  7  1  0
  7  9  1  0
  7  8  2  0
  9 10  1  0
 10 11  1  0
 11 12  1  0
 13 12  1  6
 13 14  1  0
 14  4  1  0
 15 13  1  0
 15 16  2  0
 17 18  1  0
 18 20  1  0
 19 18  2  0
 20 21  1  0
 22 21  1  6
 22 23  1  0
 23 15  1  0
 24 22  1  0
 25 24  2  0
 26 24  1  0
M  END
$$$$
