ARQ.pdb
     RDKit          3D

 26 25  0  0  1  0  0  0  0  0999 V2000
   26.4186  -24.5963  -18.5403 C   0  0  0  0  0  0  0  0  0  0  0  0
   26.5926  -24.6860  -17.0183 C   0  0  2  0  0  0  0  0  0  0  0  0
   26.4708  -26.0910  -16.6890 N   0  0  0  0  0  0  0  0  0  0  0  0
   25.5567  -23.9074  -16.3327 C   0  0  0  0  0  0  0  0  0  0  0  0
   24.3719  -24.3924  -16.3161 O   0  0  0  0  0  0  0  0  0  0  0  0
   23.6228  -20.3078   -9.0386 N   0  0  0  0  0  0  0  0  0  0  0  0
   25.0033  -20.6492   -9.1002 C   0  0  0  0  0  0  0  0  0  0  0  0
   25.7822  -20.4674   -8.1060 N   0  0  0  0  0  0  0  0  0  0  0  0
   25.5107  -21.2054  -10.3073 N   0  0  0  0  0  0  0  0  0  0  0  0
   24.9536  -20.8430  -11.5938 C   0  0  0  0  0  0  0  0  0  0  0  0
   25.7201  -21.5404  -12.7268 C   0  0  0  0  0  0  0  0  0  0  0  0
   25.1927  -20.9755  -14.0196 C   0  0  0  0  0  0  0  0  0  0  0  0
   24.7597  -22.0277  -14.9932 C   0  0  2  0  0  0  0  0  0  0  0  0
   25.8197  -22.6569  -15.6986 N   0  0  0  0  0  0  0  0  0  0  0  0
   23.8980  -21.3305  -16.0151 C   0  0  0  0  0  0  0  0  0  0  0  0
   24.2749  -21.1936  -17.2188 O   0  0  0  0  0  0  0  0  0  0  0  0
   26.7810  -20.7285   -8.1771 N   0  0  0  0  0  0  0  0  0  0  0  0
   19.4087  -24.1180  -16.2310 C   0  0  0  0  0  0  0  0  0  0  0  0
   19.3374  -23.5434  -17.5249 O   0  0  0  0  0  0  0  0  0  0  0  0
   18.3637  -23.8410  -18.2600 C   0  0  0  0  0  0  0  0  0  0  0  0
   20.3736  -22.6261  -17.9742 C   0  0  0  0  0  0  0  0  0  0  0  0
   21.4190  -22.2453  -17.0114 C   0  0  1  0  0  0  0  0  0  0  0  0
   21.5210  -20.8408  -16.5575 N   0  0  0  0  0  0  0  0  0  0  0  0
   22.6578  -20.8314  -15.6026 C   0  0  0  0  0  0  0  0  0  0  0  0
   20.3605  -20.1878  -15.9796 O   0  0  0  0  0  0  0  0  0  0  0  0
   19.4967  -19.5782  -16.6509 O   0  0  0  0  0  0  0  0  0  0  0  0
  2  1  1  6
  2  3  1  0
  4  2  1  0
  5  4  2  0
  6  7  1  0
  7  9  1  0
  7  8  2  0
  9 10  1  0
 10 11  1  0
 11 12  1  0
 13 12  1  1
 13 14  1  0
 14  4  1  0
 15 13  1  0
 15 16  2  0
 17 18  1  0
 18 20  1  0
 19 18  2  0
 20 21  1  0
 22 21  1  6
 22 23  1  0
 23 15  1  0
 24 22  1  0
 25 24  2  0
 26 24  1  0
M  END
$$$$
