ARQ.pdb
     RDKit          3D

 26 25  0  0  1  0  0  0  0  0999 V2000
   27.8695  -19.3612  -19.4318 C   0  0  0  0  0  0  0  0  0  0  0  0
   26.5655  -18.5733  -19.2483 C   0  0  2  0  0  0  0  0  0  0  0  0
   26.9646  -17.2193  -18.9243 N   0  0  0  0  0  0  0  0  0  0  0  0
   25.7644  -19.1452  -18.1619 C   0  0  0  0  0  0  0  0  0  0  0  0
   25.2813  -20.3171  -18.3423 O   0  0  0  0  0  0  0  0  0  0  0  0
   27.0595  -21.6215  -11.5745 N   0  0  0  0  0  0  0  0  0  0  0  0
   26.0827  -20.6565  -11.1993 C   0  0  0  0  0  0  0  0  0  0  0  0
   25.2320  -20.8896  -10.2772 N   0  0  0  0  0  0  0  0  0  0  0  0
   26.0685  -19.4068  -11.8791 N   0  0  0  0  0  0  0  0  0  0  0  0
   27.0964  -19.0622  -12.8390 C   0  0  0  0  0  0  0  0  0  0  0  0
   26.6829  -19.5031  -14.2505 C   0  0  0  0  0  0  0  0  0  0  0  0
   25.3403  -18.8777  -14.5245 C   0  0  0  0  0  0  0  0  0  0  0  0
   24.8301  -19.1508  -15.9057 C   0  0  2  0  0  0  0  0  0  0  0  0
   25.5116  -18.4548  -16.9393 N   0  0  0  0  0  0  0  0  0  0  0  0
   23.3962  -18.6860  -15.9274 C   0  0  0  0  0  0  0  0  0  0  0  0
   23.0984  -17.4534  -15.9690 O   0  0  0  0  0  0  0  0  0  0  0  0
   24.4993  -20.1916  -10.0613 N   0  0  0  0  0  0  0  0  0  0  0  0
   18.2455  -21.4978  -17.5857 C   0  0  0  0  0  0  0  0  0  0  0  0
   19.5636  -21.9388  -17.8641 O   0  0  0  0  0  0  0  0  0  0  0  0
   19.7246  -23.1008  -18.3124 C   0  0  0  0  0  0  0  0  0  0  0  0
   20.6936  -21.0510  -17.6363 C   0  0  0  0  0  0  0  0  0  0  0  0
   20.4109  -19.6847  -17.1694 C   0  0  1  0  0  0  0  0  0  0  0  0
   20.9681  -19.2210  -15.8795 N   0  0  0  0  0  0  0  0  0  0  0  0
   22.3876  -19.6553  -15.9004 C   0  0  0  0  0  0  0  0  0  0  0  0
   20.3288  -19.6177  -14.6381 O   0  0  0  0  0  0  0  0  0  0  0  0
   19.1554  -19.3085  -14.3279 O   0  0  0  0  0  0  0  0  0  0  0  0
  2  1  1  1
  2  3  1  0
  4  2  1  0
  5  4  2  0
  6  7  1  0
  7  9  1  0
  7  8  2  0
  9 10  1  0
 10 11  1  0
 11 12  1  0
 13 12  1  1
 13 14  1  0
 14  4  1  0
 15 13  1  0
 15 16  2  0
 17 18  1  0
 18 20  1  0
 19 18  2  0
 20 21  1  0
 22 21  1  6
 22 23  1  0
 23 15  1  0
 24 22  1  0
 25 24  2  0
 26 24  1  0
M  END
$$$$
