ARQ.pdb
     RDKit          3D

 26 25  0  0  1  0  0  0  0  0999 V2000
   18.1974  -25.0248   -9.3214 C   0  0  0  0  0  0  0  0  0  0  0  0
   18.6633  -23.9120   -8.3730 C   0  0  2  0  0  0  0  0  0  0  0  0
   17.4687  -23.4339   -7.7081 N   0  0  0  0  0  0  0  0  0  0  0  0
   19.3011  -22.8263   -9.1236 C   0  0  0  0  0  0  0  0  0  0  0  0
   18.5342  -21.9462   -9.6496 O   0  0  0  0  0  0  0  0  0  0  0  0
   25.6012  -22.9830  -13.4549 N   0  0  0  0  0  0  0  0  0  0  0  0
   25.6397  -21.5841  -13.7149 C   0  0  0  0  0  0  0  0  0  0  0  0
   25.9081  -21.1267  -14.8756 N   0  0  0  0  0  0  0  0  0  0  0  0
   25.3702  -20.6878  -12.6435 N   0  0  0  0  0  0  0  0  0  0  0  0
   24.7738  -21.1516  -11.4081 C   0  0  0  0  0  0  0  0  0  0  0  0
   23.2424  -21.1545  -11.5188 C   0  0  0  0  0  0  0  0  0  0  0  0
   22.7116  -21.6067  -10.1838 C   0  0  0  0  0  0  0  0  0  0  0  0
   21.2181  -21.7092  -10.1436 C   0  0  2  0  0  0  0  0  0  0  0  0
   20.7149  -22.7210   -9.2833 N   0  0  0  0  0  0  0  0  0  0  0  0
   20.7795  -22.0572  -11.5433 C   0  0  0  0  0  0  0  0  0  0  0  0
   20.9214  -23.2278  -12.0117 O   0  0  0  0  0  0  0  0  0  0  0  0
   26.0018  -20.1065  -15.0203 N   0  0  0  0  0  0  0  0  0  0  0  0
   15.4203  -21.4418  -13.4031 C   0  0  0  0  0  0  0  0  0  0  0  0
   16.0151  -21.6692  -14.6695 O   0  0  0  0  0  0  0  0  0  0  0  0
   15.2654  -21.8827  -15.6541 C   0  0  0  0  0  0  0  0  0  0  0  0
   17.4631  -21.6461  -14.8105 C   0  0  0  0  0  0  0  0  0  0  0  0
   18.2684  -21.4349  -13.5973 C   0  0  1  0  0  0  0  0  0  0  0  0
   19.7433  -21.3736  -13.6981 N   0  0  0  0  0  0  0  0  0  0  0  0
   20.2050  -21.0490  -12.3249 C   0  0  0  0  0  0  0  0  0  0  0  0
   20.3596  -20.4880  -14.6691 O   0  0  0  0  0  0  0  0  0  0  0  0
   20.6318  -19.2865  -14.4432 O   0  0  0  0  0  0  0  0  0  0  0  0
  2  1  1  6
  2  3  1  0
  4  2  1  0
  5  4  2  0
  6  7  1  0
  7  9  1  0
  7  8  2  0
  9 10  1  0
 10 11  1  0
 11 12  1  0
 13 12  1  6
 13 14  1  0
 14  4  1  0
 15 13  1  0
 15 16  2  0
 17 18  1  0
 18 20  1  0
 19 18  2  0
 20 21  1  0
 22 21  1  1
 22 23  1  0
 23 15  1  0
 24 22  1  0
 25 24  2  0
 26 24  1  0
M  END
$$$$
