ARQ.pdb
     RDKit          3D

 26 25  0  0  1  0  0  0  0  0999 V2000
   19.2713  -26.3102  -13.7499 C   0  0  0  0  0  0  0  0  0  0  0  0
   20.6442  -26.9730  -13.5745 C   0  0  2  0  0  0  0  0  0  0  0  0
   20.6418  -27.5396  -12.2417 N   0  0  0  0  0  0  0  0  0  0  0  0
   21.7171  -25.9830  -13.7085 C   0  0  0  0  0  0  0  0  0  0  0  0
   21.9831  -25.2627  -12.6838 O   0  0  0  0  0  0  0  0  0  0  0  0
   29.3529  -27.5066  -16.5186 N   0  0  0  0  0  0  0  0  0  0  0  0
   28.6113  -26.4372  -17.0953 C   0  0  0  0  0  0  0  0  0  0  0  0
   28.8987  -25.9687  -18.2469 N   0  0  0  0  0  0  0  0  0  0  0  0
   27.5263  -25.8890  -16.3563 N   0  0  0  0  0  0  0  0  0  0  0  0
   26.8378  -24.6968  -16.8054 C   0  0  0  0  0  0  0  0  0  0  0  0
   25.8086  -24.2447  -15.7595 C   0  0  0  0  0  0  0  0  0  0  0  0
   24.6671  -25.2254  -15.8218 C   0  0  0  0  0  0  0  0  0  0  0  0
   23.5352  -24.8764  -14.9055 C   0  0  2  0  0  0  0  0  0  0  0  0
   22.4567  -25.8004  -14.9146 N   0  0  0  0  0  0  0  0  0  0  0  0
   22.9924  -23.5548  -15.3867 C   0  0  0  0  0  0  0  0  0  0  0  0
   22.1904  -23.4840  -16.3672 O   0  0  0  0  0  0  0  0  0  0  0  0
   28.3274  -25.2073  -18.6526 N   0  0  0  0  0  0  0  0  0  0  0  0
   20.5734  -19.7324  -11.6870 C   0  0  0  0  0  0  0  0  0  0  0  0
   20.5984  -18.9142  -12.8442 O   0  0  0  0  0  0  0  0  0  0  0  0
   19.9343  -17.8483  -12.8390 C   0  0  0  0  0  0  0  0  0  0  0  0
   21.3855  -19.3110  -14.0018 C   0  0  0  0  0  0  0  0  0  0  0  0
   22.0667  -20.6143  -13.9556 C   0  0  1  0  0  0  0  0  0  0  0  0
   22.8264  -21.0864  -15.1343 N   0  0  0  0  0  0  0  0  0  0  0  0
   23.3971  -22.3930  -14.7204 C   0  0  0  0  0  0  0  0  0  0  0  0
   23.8530  -20.2386  -15.7126 O   0  0  0  0  0  0  0  0  0  0  0  0
   25.0427  -20.2183  -15.3218 O   0  0  0  0  0  0  0  0  0  0  0  0
  2  1  1  1
  2  3  1  0
  4  2  1  0
  5  4  2  0
  6  7  1  0
  7  9  1  0
  7  8  2  0
  9 10  1  0
 10 11  1  0
 11 12  1  0
 13 12  1  6
 13 14  1  0
 14  4  1  0
 15 13  1  0
 15 16  2  0
 17 18  1  0
 18 20  1  0
 19 18  2  0
 20 21  1  0
 22 21  1  6
 22 23  1  0
 23 15  1  0
 24 22  1  0
 25 24  2  0
 26 24  1  0
M  END
$$$$
