RLW.pdb
     RDKit          3D

 34 35  0  0  1  0  0  0  0  0999 V2000
   28.6979  -19.8489  -19.5614 N   0  0  0  0  0  0  0  0  0  0  0  0
   27.2418  -19.7645  -19.5161 C   0  0  0  0  0  0  0  0  0  0  0  0
   26.5485  -20.2943  -20.4368 N   0  0  0  0  0  0  0  0  0  0  0  0
   26.6291  -19.0814  -18.4362 N   0  0  0  0  0  0  0  0  0  0  0  0
   27.3125  -18.5120  -17.3307 C   0  0  0  0  0  0  0  0  0  0  0  0
   27.8690  -19.4109  -16.2904 C   0  0  0  0  0  0  0  0  0  0  0  0
   26.7517  -20.0056  -15.4149 C   0  0  0  0  0  0  0  0  0  0  0  0
   27.2921  -20.8968  -14.3492 C   0  0  2  0  0  0  0  0  0  0  0  0
   27.8808  -22.0654  -14.9594 N   0  0  0  0  0  0  0  0  0  0  0  0
   26.1729  -21.3857  -13.4544 C   0  0  0  0  0  0  0  0  0  0  0  0
   25.6525  -22.4754  -13.7005 O   0  0  0  0  0  0  0  0  0  0  0  0
   25.5471  -20.3668  -20.4561 C   0  0  0  0  0  0  0  0  0  0  0  0
   26.2421  -22.0432   -9.1899 C   0  0  2  0  0  0  0  0  0  0  0  0
   26.1861  -20.5432   -9.5323 C   0  0  0  0  0  0  0  0  0  0  0  0
   26.3468  -19.7578   -8.2418 C   0  0  0  0  0  0  0  0  0  0  0  0
   24.8563  -20.3231  -10.1824 C   0  0  2  0  0  0  0  0  0  0  0  0
   24.6057  -20.9855  -11.4878 N   0  0  0  0  0  0  0  0  0  0  0  0
   25.7458  -20.5972  -12.3669 C   0  0  0  0  0  0  0  0  0  0  0  0
   23.3495  -20.7335  -12.1671 O   0  0  0  0  0  0  0  0  0  0  0  0
   22.2562  -21.0204  -11.5407 N   0  0  0  0  0  0  0  0  0  0  0  0
   23.2462  -20.1959  -13.4547 C   0  0  2  0  0  0  0  0  0  0  0  0
   21.9762  -19.8680  -14.1175 C   0  0  0  0  0  0  0  0  0  0  0  0
   22.1747  -18.8527  -15.1700 C   0  0  0  0  0  0  0  0  0  0  0  0
   20.9520  -18.4762  -15.8801 C   0  0  0  0  0  0  0  0  0  0  0  0
   19.8933  -17.7011  -15.3916 N   0  0  0  0  0  0  0  0  0  0  0  0
   18.9265  -17.5947  -16.3110 C   0  0  0  0  0  0  0  0  0  0  0  0
   19.2981  -18.2793  -17.4212 C   0  0  0  0  0  0  0  0  0  0  0  0
   18.7177  -18.4906  -18.6514 C   0  0  0  0  0  0  0  0  0  0  0  0
   19.3462  -19.2304  -19.6359 C   0  0  0  0  0  0  0  0  0  0  0  0
   20.5832  -19.7701  -19.3817 C   0  0  0  0  0  0  0  0  0  0  0  0
   21.1679  -19.5650  -18.1584 C   0  0  0  0  0  0  0  0  0  0  0  0
   20.5541  -18.8267  -17.1566 C   0  0  0  0  0  0  0  0  0  0  0  0
   21.3847  -21.1040  -14.6019 O   0  0  0  0  0  0  0  0  0  0  0  0
   20.0133  -21.3913  -14.6180 O   0  0  0  0  0  0  0  0  0  0  0  0
  1  2  1  0
  2  3  2  0
  4  2  1  0
  5  4  1  0
  6  5  1  0
  7  6  1  0
  8  7  1  0
  8  9  1  6
 10 11  2  0
 10  8  1  0
 13 12  1  6
 13 15  1  0
 14 13  1  0
 16 15  1  1
 16 17  1  0
 17 10  1  0
 18 19  2  0
 18 16  1  0
 20 18  1  0
 21 20  1  0
 21 22  1  6
 22 23  1  0
 23 31  1  0
 23 24  2  0
 24 25  1  0
 25 26  1  0
 26 27  2  0
 28 27  1  0
 29 28  2  0
 30 31  2  0
 30 29  1  0
 31 26  1  0
 32 21  1  0
 33 32  1  0
 34 32  2  0
M  END
$$$$
