RLW.pdb
     RDKit          3D

 34 35  0  0  1  0  0  0  0  0999 V2000
   24.9611  -27.3784  -17.1718 N   0  0  0  0  0  0  0  0  0  0  0  0
   23.9941  -26.2863  -17.1313 C   0  0  0  0  0  0  0  0  0  0  0  0
   22.8052  -26.5079  -16.7486 N   0  0  0  0  0  0  0  0  0  0  0  0
   24.4081  -24.9906  -17.5293 N   0  0  0  0  0  0  0  0  0  0  0  0
   25.6674  -24.4052  -17.2384 C   0  0  0  0  0  0  0  0  0  0  0  0
   26.5772  -25.0933  -16.2904 C   0  0  0  0  0  0  0  0  0  0  0  0
   27.7785  -24.2023  -15.9278 C   0  0  0  0  0  0  0  0  0  0  0  0
   27.7388  -22.8941  -16.6412 C   0  0  2  0  0  0  0  0  0  0  0  0
   28.9171  -22.7660  -17.4657 N   0  0  0  0  0  0  0  0  0  0  0  0
   27.7718  -21.7518  -15.6481 C   0  0  0  0  0  0  0  0  0  0  0  0
   28.8296  -21.5051  -15.0657 O   0  0  0  0  0  0  0  0  0  0  0  0
   22.0375  -25.8623  -16.7988 C   0  0  0  0  0  0  0  0  0  0  0  0
   28.5567  -17.8536  -15.5459 C   0  0  1  0  0  0  0  0  0  0  0  0
   27.2935  -18.2457  -16.3339 C   0  0  0  0  0  0  0  0  0  0  0  0
   26.8557  -17.0435  -17.1533 C   0  0  0  0  0  0  0  0  0  0  0  0
   26.2811  -18.6465  -15.3074 C   0  0  2  0  0  0  0  0  0  0  0  0
   26.5784  -19.8360  -14.4693 N   0  0  0  0  0  0  0  0  0  0  0  0
   26.6066  -20.9966  -15.4051 C   0  0  0  0  0  0  0  0  0  0  0  0
   25.7122  -20.1294  -13.3439 O   0  0  0  0  0  0  0  0  0  0  0  0
   25.5667  -19.2172  -12.4402 N   0  0  0  0  0  0  0  0  0  0  0  0
   25.0214  -21.3346  -13.1768 C   0  0  2  0  0  0  0  0  0  0  0  0
   24.0914  -21.6117  -12.0732 C   0  0  0  0  0  0  0  0  0  0  0  0
   24.8225  -21.8859  -10.8208 C   0  0  0  0  0  0  0  0  0  0  0  0
   25.4083  -20.7001  -10.1950 C   0  0  0  0  0  0  0  0  0  0  0  0
   25.2267  -19.3648  -10.5748 N   0  0  0  0  0  0  0  0  0  0  0  0
   25.9489  -18.5524   -9.7938 C   0  0  0  0  0  0  0  0  0  0  0  0
   26.6224  -19.3005   -8.8849 C   0  0  0  0  0  0  0  0  0  0  0  0
   27.4787  -19.0020   -7.8492 C   0  0  0  0  0  0  0  0  0  0  0  0
   28.0176  -19.9873   -7.0427 C   0  0  0  0  0  0  0  0  0  0  0  0
   27.6912  -21.3000   -7.2795 C   0  0  0  0  0  0  0  0  0  0  0  0
   26.8396  -21.6058   -8.3098 C   0  0  0  0  0  0  0  0  0  0  0  0
   26.2886  -20.6328   -9.1314 C   0  0  0  0  0  0  0  0  0  0  0  0
   23.1599  -20.5005  -11.9747 O   0  0  0  0  0  0  0  0  0  0  0  0
   22.1243  -20.3952  -11.0367 O   0  0  0  0  0  0  0  0  0  0  0  0
  1  2  1  0
  2  3  2  0
  4  2  1  0
  5  4  1  0
  6  5  1  0
  7  6  1  0
  8  7  1  0
  8  9  1  6
 10 11  2  0
 10  8  1  0
 13 12  1  6
 13 15  1  0
 14 13  1  0
 16 15  1  6
 16 17  1  0
 17 10  1  0
 18 19  2  0
 18 16  1  0
 20 18  1  0
 21 20  1  0
 21 22  1  6
 22 23  1  0
 23 31  1  0
 23 24  2  0
 24 25  1  0
 25 26  1  0
 26 27  2  0
 28 27  1  0
 29 28  2  0
 30 31  2  0
 30 29  1  0
 31 26  1  0
 32 21  1  0
 33 32  1  0
 34 32  2  0
M  END
$$$$
