RLW.pdb
     RDKit          3D

 34 35  0  0  1  0  0  0  0  0999 V2000
   22.6317  -19.5047  -20.0814 N   0  0  0  0  0  0  0  0  0  0  0  0
   22.8093  -20.5489  -21.0852 C   0  0  0  0  0  0  0  0  0  0  0  0
   22.2667  -20.4289  -22.2255 N   0  0  0  0  0  0  0  0  0  0  0  0
   23.5878  -21.6871  -20.7585 N   0  0  0  0  0  0  0  0  0  0  0  0
   24.3337  -21.8566  -19.5634 C   0  0  0  0  0  0  0  0  0  0  0  0
   25.7753  -21.5077  -19.5613 C   0  0  0  0  0  0  0  0  0  0  0  0
   26.4225  -21.8295  -18.2026 C   0  0  0  0  0  0  0  0  0  0  0  0
   25.6008  -21.3349  -17.0616 C   0  0  2  0  0  0  0  0  0  0  0  0
   25.7984  -19.9122  -16.9145 N   0  0  0  0  0  0  0  0  0  0  0  0
   26.0554  -21.9771  -15.7682 C   0  0  0  0  0  0  0  0  0  0  0  0
   26.0296  -23.2060  -15.6774 O   0  0  0  0  0  0  0  0  0  0  0  0
   22.3287  -21.0863  -22.9822 C   0  0  0  0  0  0  0  0  0  0  0  0
   29.6974  -21.8700  -14.7950 C   0  0  2  0  0  0  0  0  0  0  0  0
   29.1072  -20.5695  -14.2197 C   0  0  0  0  0  0  0  0  0  0  0  0
   30.2589  -19.6844  -13.7747 C   0  0  0  0  0  0  0  0  0  0  0  0
   28.2269  -20.9890  -13.0846 C   0  0  2  0  0  0  0  0  0  0  0  0
   26.9869  -21.7385  -13.4103 N   0  0  0  0  0  0  0  0  0  0  0  0
   26.4948  -21.1711  -14.6985 C   0  0  0  0  0  0  0  0  0  0  0  0
   25.9114  -21.7624  -12.4377 O   0  0  0  0  0  0  0  0  0  0  0  0
   26.0757  -22.4767  -11.3735 N   0  0  0  0  0  0  0  0  0  0  0  0
   24.7103  -21.0584  -12.5765 C   0  0  1  0  0  0  0  0  0  0  0  0
   23.5905  -21.1330  -11.6277 C   0  0  0  0  0  0  0  0  0  0  0  0
   23.3820  -19.8378  -10.9516 C   0  0  0  0  0  0  0  0  0  0  0  0
   24.5258  -19.3814  -10.1615 C   0  0  0  0  0  0  0  0  0  0  0  0
   25.4366  -18.3716  -10.4946 N   0  0  0  0  0  0  0  0  0  0  0  0
   26.3746  -18.2544   -9.5470 C   0  0  0  0  0  0  0  0  0  0  0  0
   26.1277  -19.1613   -8.5694 C   0  0  0  0  0  0  0  0  0  0  0  0
   26.7395  -19.4680   -7.3750 C   0  0  0  0  0  0  0  0  0  0  0  0
   26.2484  -20.4514   -6.5363 C   0  0  0  0  0  0  0  0  0  0  0  0
   25.1196  -21.1423   -6.9029 C   0  0  0  0  0  0  0  0  0  0  0  0
   24.5046  -20.8435   -8.0916 C   0  0  0  0  0  0  0  0  0  0  0  0
   24.9815  -19.8613   -8.9479 C   0  0  0  0  0  0  0  0  0  0  0  0
   22.4205  -21.6137  -12.3433 O   0  0  0  0  0  0  0  0  0  0  0  0
   21.1772  -21.8956  -11.7619 O   0  0  0  0  0  0  0  0  0  0  0  0
  1  2  1  0
  2  3  2  0
  4  2  1  0
  5  4  1  0
  6  5  1  0
  7  6  1  0
  8  7  1  0
  8  9  1  1
 10 11  2  0
 10  8  1  0
 13 12  1  6
 13 15  1  0
 14 13  1  0
 16 15  1  6
 16 17  1  0
 17 10  1  0
 18 19  2  0
 18 16  1  0
 20 18  1  0
 21 20  1  0
 21 22  1  1
 22 23  1  0
 23 31  1  0
 23 24  2  0
 24 25  1  0
 25 26  1  0
 26 27  2  0
 28 27  1  0
 29 28  2  0
 30 31  2  0
 30 29  1  0
 31 26  1  0
 32 21  1  0
 33 32  1  0
 34 32  2  0
M  END
$$$$
