RLW.pdb
     RDKit          3D

 34 35  0  0  1  0  0  0  0  0999 V2000
   31.1664  -22.5386  -18.7568 N   0  0  0  0  0  0  0  0  0  0  0  0
   30.1743  -23.5855  -18.9786 C   0  0  0  0  0  0  0  0  0  0  0  0
   30.4421  -24.5580  -19.7478 N   0  0  0  0  0  0  0  0  0  0  0  0
   28.9196  -23.4885  -18.3269 N   0  0  0  0  0  0  0  0  0  0  0  0
   28.4725  -22.3769  -17.5668 C   0  0  0  0  0  0  0  0  0  0  0  0
   28.6923  -22.3753  -16.0999 C   0  0  0  0  0  0  0  0  0  0  0  0
   27.4126  -22.7790  -15.3463 C   0  0  0  0  0  0  0  0  0  0  0  0
   26.3238  -21.7755  -15.5174 C   0  0  2  0  0  0  0  0  0  0  0  0
   26.8571  -20.4523  -15.2951 N   0  0  0  0  0  0  0  0  0  0  0  0
   25.2410  -21.9919  -14.4817 C   0  0  0  0  0  0  0  0  0  0  0  0
   24.5808  -23.0317  -14.5250 O   0  0  0  0  0  0  0  0  0  0  0  0
   29.7826  -25.2197  -20.1163 C   0  0  0  0  0  0  0  0  0  0  0  0
   25.9987  -22.4620  -10.5907 C   0  0  2  0  0  0  0  0  0  0  0  0
   25.9853  -20.9525  -10.8941 C   0  0  0  0  0  0  0  0  0  0  0  0
   26.5184  -20.2208   -9.6741 C   0  0  0  0  0  0  0  0  0  0  0  0
   24.5605  -20.6107  -11.1977 C   0  0  2  0  0  0  0  0  0  0  0  0
   23.9641  -21.1676  -12.4386 N   0  0  0  0  0  0  0  0  0  0  0  0
   25.0047  -21.0130  -13.4953 C   0  0  0  0  0  0  0  0  0  0  0  0
   22.7008  -20.6305  -12.9064 O   0  0  0  0  0  0  0  0  0  0  0  0
   21.7081  -20.6149  -12.0792 N   0  0  0  0  0  0  0  0  0  0  0  0
   22.4902  -20.1248  -14.1938 C   0  0  1  0  0  0  0  0  0  0  0  0
   21.1895  -19.6685  -14.7034 C   0  0  0  0  0  0  0  0  0  0  0  0
   21.3343  -18.4276  -15.4892 C   0  0  0  0  0  0  0  0  0  0  0  0
   20.0826  -17.9275  -16.0586 C   0  0  0  0  0  0  0  0  0  0  0  0
   19.0239  -17.3189  -15.3737 N   0  0  0  0  0  0  0  0  0  0  0  0
   18.0270  -17.0247  -16.2170 C   0  0  0  0  0  0  0  0  0  0  0  0
   18.3780  -17.4171  -17.4668 C   0  0  0  0  0  0  0  0  0  0  0  0
   17.7642  -17.3475  -18.6970 C   0  0  0  0  0  0  0  0  0  0  0  0
   18.3769  -17.8162  -19.8444 C   0  0  0  0  0  0  0  0  0  0  0  0
   19.6320  -18.3667  -19.7567 C   0  0  0  0  0  0  0  0  0  0  0  0
   20.2500  -18.4406  -18.5348 C   0  0  0  0  0  0  0  0  0  0  0  0
   19.6526  -17.9771  -17.3714 C   0  0  0  0  0  0  0  0  0  0  0  0
   20.5833  -20.7620  -15.4442 O   0  0  0  0  0  0  0  0  0  0  0  0
   19.2102  -21.0347  -15.5029 O   0  0  0  0  0  0  0  0  0  0  0  0
  1  2  1  0
  2  3  2  0
  4  2  1  0
  5  4  1  0
  6  5  1  0
  7  6  1  0
  8  7  1  0
  8  9  1  1
 10 11  2  0
 10  8  1  0
 13 12  1  6
 13 15  1  0
 14 13  1  0
 16 15  1  1
 16 17  1  0
 17 10  1  0
 18 19  2  0
 18 16  1  0
 20 18  1  0
 21 20  1  0
 21 22  1  6
 22 23  1  0
 23 31  1  0
 23 24  2  0
 24 25  1  0
 25 26  1  0
 26 27  2  0
 28 27  1  0
 29 28  2  0
 30 31  2  0
 30 29  1  0
 31 26  1  0
 32 21  1  0
 33 32  1  0
 34 32  2  0
M  END
$$$$
