RLW.pdb
     RDKit          3D

 34 35  0  0  1  0  0  0  0  0999 V2000
   27.7514  -28.4747  -16.6046 N   0  0  0  0  0  0  0  0  0  0  0  0
   28.7328  -27.4427  -16.2865 C   0  0  0  0  0  0  0  0  0  0  0  0
   29.4389  -27.5431  -15.2375 N   0  0  0  0  0  0  0  0  0  0  0  0
   28.8727  -26.3379  -17.1629 N   0  0  0  0  0  0  0  0  0  0  0  0
   28.1577  -26.1551  -18.3748 C   0  0  0  0  0  0  0  0  0  0  0  0
   26.9397  -25.3086  -18.3690 C   0  0  0  0  0  0  0  0  0  0  0  0
   26.4618  -25.0333  -16.9323 C   0  0  0  0  0  0  0  0  0  0  0  0
   25.3014  -24.0983  -16.8994 C   0  0  2  0  0  0  0  0  0  0  0  0
   25.3012  -23.2978  -18.1010 N   0  0  0  0  0  0  0  0  0  0  0  0
   25.4301  -23.1404  -15.7341 C   0  0  0  0  0  0  0  0  0  0  0  0
   25.5518  -23.6039  -14.5986 O   0  0  0  0  0  0  0  0  0  0  0  0
   30.1295  -26.8848  -14.9240 C   0  0  0  0  0  0  0  0  0  0  0  0
   27.7442  -17.6598  -15.2469 C   0  0  1  0  0  0  0  0  0  0  0  0
   26.8833  -18.6273  -14.4142 C   0  0  0  0  0  0  0  0  0  0  0  0
   27.7017  -19.0751  -13.2151 C   0  0  0  0  0  0  0  0  0  0  0  0
   26.5358  -19.7566  -15.3325 C   0  0  2  0  0  0  0  0  0  0  0  0
   25.5387  -20.7509  -14.8607 N   0  0  0  0  0  0  0  0  0  0  0  0
   25.4076  -21.7493  -15.9605 C   0  0  0  0  0  0  0  0  0  0  0  0
   24.2261  -20.2841  -14.4578 O   0  0  0  0  0  0  0  0  0  0  0  0
   24.1384  -19.5966  -13.3672 N   0  0  0  0  0  0  0  0  0  0  0  0
   23.0506  -20.5271  -15.1766 C   0  0  1  0  0  0  0  0  0  0  0  0
   21.7205  -20.0442  -14.7796 C   0  0  0  0  0  0  0  0  0  0  0  0
   21.0162  -19.4324  -15.9232 C   0  0  0  0  0  0  0  0  0  0  0  0
   21.7936  -18.4172  -16.6344 C   0  0  0  0  0  0  0  0  0  0  0  0
   22.8360  -18.6319  -17.5441 N   0  0  0  0  0  0  0  0  0  0  0  0
   23.3375  -17.4652  -17.9670 C   0  0  0  0  0  0  0  0  0  0  0  0
   22.6617  -16.4533  -17.3682 C   0  0  0  0  0  0  0  0  0  0  0  0
   22.7356  -15.0807  -17.4423 C   0  0  0  0  0  0  0  0  0  0  0  0
   21.8838  -14.2653  -16.7203 C   0  0  0  0  0  0  0  0  0  0  0  0
   20.9376  -14.8383  -15.9064 C   0  0  0  0  0  0  0  0  0  0  0  0
   20.8581  -16.2048  -15.8262 C   0  0  0  0  0  0  0  0  0  0  0  0
   21.7035  -17.0410  -16.5415 C   0  0  0  0  0  0  0  0  0  0  0  0
   20.9988  -21.1499  -14.1724 O   0  0  0  0  0  0  0  0  0  0  0  0
   21.4611  -22.4704  -14.0939 O   0  0  0  0  0  0  0  0  0  0  0  0
  1  2  1  0
  2  3  2  0
  4  2  1  0
  5  4  1  0
  6  5  1  0
  7  6  1  0
  8  7  1  0
  8  9  1  6
 10 11  2  0
 10  8  1  0
 13 12  1  1
 13 15  1  0
 14 13  1  0
 16 15  1  1
 16 17  1  0
 17 10  1  0
 18 19  2  0
 18 16  1  0
 20 18  1  0
 21 20  1  0
 21 22  1  1
 22 23  1  0
 23 31  1  0
 23 24  2  0
 24 25  1  0
 25 26  1  0
 26 27  2  0
 28 27  1  0
 29 28  2  0
 30 31  2  0
 30 29  1  0
 31 26  1  0
 32 21  1  0
 33 32  1  0
 34 32  2  0
M  END
$$$$
