RLW.pdb
     RDKit          3D

 34 35  0  0  1  0  0  0  0  0999 V2000
   27.0371  -20.8583  -18.3173 N   0  0  0  0  0  0  0  0  0  0  0  0
   28.4694  -20.6185  -18.1739 C   0  0  0  0  0  0  0  0  0  0  0  0
   29.1093  -20.0363  -19.1015 N   0  0  0  0  0  0  0  0  0  0  0  0
   29.1206  -21.0503  -16.9915 N   0  0  0  0  0  0  0  0  0  0  0  0
   28.4916  -21.2597  -15.7370 C   0  0  0  0  0  0  0  0  0  0  0  0
   27.9051  -20.0981  -15.0252 C   0  0  0  0  0  0  0  0  0  0  0  0
   27.1541  -20.5446  -13.7583 C   0  0  0  0  0  0  0  0  0  0  0  0
   28.0750  -20.7376  -12.6022 C   0  0  2  0  0  0  0  0  0  0  0  0
   29.0405  -21.7603  -12.9286 N   0  0  0  0  0  0  0  0  0  0  0  0
   27.3068  -21.2291  -11.3937 C   0  0  0  0  0  0  0  0  0  0  0  0
   27.0150  -22.4246  -11.3248 O   0  0  0  0  0  0  0  0  0  0  0  0
   30.1005  -19.8765  -19.1265 C   0  0  0  0  0  0  0  0  0  0  0  0
   28.3990  -21.0637   -7.3079 C   0  0  2  0  0  0  0  0  0  0  0  0
   27.9259  -19.6964   -7.8344 C   0  0  0  0  0  0  0  0  0  0  0  0
   28.2257  -18.6519   -6.7727 C   0  0  0  0  0  0  0  0  0  0  0  0
   26.4611  -19.8473   -8.1010 C   0  0  2  0  0  0  0  0  0  0  0  0
   26.0497  -20.7037   -9.2425 N   0  0  0  0  0  0  0  0  0  0  0  0
   26.9391  -20.3241  -10.3775 C   0  0  0  0  0  0  0  0  0  0  0  0
   24.6641  -20.6768   -9.6697 O   0  0  0  0  0  0  0  0  0  0  0  0
   23.7654  -21.0712   -8.8291 N   0  0  0  0  0  0  0  0  0  0  0  0
   24.2389  -20.2474  -10.9316 C   0  0  1  0  0  0  0  0  0  0  0  0
   22.8328  -20.1740  -11.3526 C   0  0  0  0  0  0  0  0  0  0  0  0
   22.6522  -19.1752  -12.4241 C   0  0  0  0  0  0  0  0  0  0  0  0
   21.2633  -18.9909  -12.8458 C   0  0  0  0  0  0  0  0  0  0  0  0
   20.1867  -18.5704  -12.0555 N   0  0  0  0  0  0  0  0  0  0  0  0
   19.0568  -18.5530  -12.7727 C   0  0  0  0  0  0  0  0  0  0  0  0
   19.3336  -18.9516  -14.0391 C   0  0  0  0  0  0  0  0  0  0  0  0
   18.5776  -19.1006  -15.1799 C   0  0  0  0  0  0  0  0  0  0  0  0
   19.1367  -19.5114  -16.3758 C   0  0  0  0  0  0  0  0  0  0  0  0
   20.4827  -19.7787  -16.4293 C   0  0  0  0  0  0  0  0  0  0  0  0
   21.2427  -19.6336  -15.2972 C   0  0  0  0  0  0  0  0  0  0  0  0
   20.7014  -19.2235  -14.0871 C   0  0  0  0  0  0  0  0  0  0  0  0
   22.3989  -21.5113  -11.7211 O   0  0  0  0  0  0  0  0  0  0  0  0
   21.1120  -22.0274  -11.5190 O   0  0  0  0  0  0  0  0  0  0  0  0
  1  2  1  0
  2  3  2  0
  4  2  1  0
  5  4  1  0
  6  5  1  0
  7  6  1  0
  8  7  1  0
  8  9  1  6
 10 11  2  0
 10  8  1  0
 13 12  1  6
 13 15  1  0
 14 13  1  0
 16 15  1  1
 16 17  1  0
 17 10  1  0
 18 19  2  0
 18 16  1  0
 20 18  1  0
 21 20  1  0
 21 22  1  6
 22 23  1  0
 23 31  1  0
 23 24  2  0
 24 25  1  0
 25 26  1  0
 26 27  2  0
 28 27  1  0
 29 28  2  0
 30 31  2  0
 30 29  1  0
 31 26  1  0
 32 21  1  0
 33 32  1  0
 34 32  2  0
M  END
$$$$
