RLW.pdb
     RDKit          3D

 34 35  0  0  1  0  0  0  0  0999 V2000
   21.4007  -24.3449  -18.9414 N   0  0  0  0  0  0  0  0  0  0  0  0
   20.6530  -24.7293  -17.7487 C   0  0  0  0  0  0  0  0  0  0  0  0
   19.6352  -25.4789  -17.8544 N   0  0  0  0  0  0  0  0  0  0  0  0
   21.0825  -24.2477  -16.4869 N   0  0  0  0  0  0  0  0  0  0  0  0
   21.5803  -22.9438  -16.2315 C   0  0  0  0  0  0  0  0  0  0  0  0
   22.9357  -22.5853  -16.7155 C   0  0  0  0  0  0  0  0  0  0  0  0
   24.0191  -23.0457  -15.7242 C   0  0  0  0  0  0  0  0  0  0  0  0
   23.9908  -22.2566  -14.4599 C   0  0  2  0  0  0  0  0  0  0  0  0
   23.5098  -20.9247  -14.7411 N   0  0  0  0  0  0  0  0  0  0  0  0
   25.3898  -22.1090  -13.9002 C   0  0  0  0  0  0  0  0  0  0  0  0
   26.0414  -23.1274  -13.6612 O   0  0  0  0  0  0  0  0  0  0  0  0
   19.0838  -25.8383  -17.0959 C   0  0  0  0  0  0  0  0  0  0  0  0
   28.1214  -19.7968  -15.9407 C   0  0  2  0  0  0  0  0  0  0  0  0
   27.3059  -18.9231  -14.9701 C   0  0  0  0  0  0  0  0  0  0  0  0
   27.5955  -17.4662  -15.2889 C   0  0  0  0  0  0  0  0  0  0  0  0
   27.7519  -19.3151  -13.5965 C   0  0  2  0  0  0  0  0  0  0  0  0
   27.2644  -20.6083  -13.0529 N   0  0  0  0  0  0  0  0  0  0  0  0
   25.9205  -20.8251  -13.6616 C   0  0  0  0  0  0  0  0  0  0  0  0
   27.1882  -20.7750  -11.6143 O   0  0  0  0  0  0  0  0  0  0  0  0
   28.2733  -20.6184  -10.9302 N   0  0  0  0  0  0  0  0  0  0  0  0
   26.0148  -21.0901  -10.9206 C   0  0  1  0  0  0  0  0  0  0  0  0
   25.9154  -21.1817   -9.4572 C   0  0  0  0  0  0  0  0  0  0  0  0
   26.8535  -20.2487   -8.8032 C   0  0  0  0  0  0  0  0  0  0  0  0
   26.8236  -20.2930   -7.3410 C   0  0  0  0  0  0  0  0  0  0  0  0
   25.7500  -20.6737   -6.5268 N   0  0  0  0  0  0  0  0  0  0  0  0
   26.0760  -20.5544   -5.2342 C   0  0  0  0  0  0  0  0  0  0  0  0
   27.3508  -20.1007   -5.1423 C   0  0  0  0  0  0  0  0  0  0  0  0
   28.1904  -19.8195   -4.0882 C   0  0  0  0  0  0  0  0  0  0  0  0
   29.4866  -19.3810   -4.2864 C   0  0  0  0  0  0  0  0  0  0  0  0
   29.9511  -19.2208   -5.5688 C   0  0  0  0  0  0  0  0  0  0  0  0
   29.1208  -19.4979   -6.6243 C   0  0  0  0  0  0  0  0  0  0  0  0
   27.8168  -19.9381   -6.4475 C   0  0  0  0  0  0  0  0  0  0  0  0
   24.5268  -20.9724   -9.0826 O   0  0  0  0  0  0  0  0  0  0  0  0
   23.8869  -21.5679   -7.9875 O   0  0  0  0  0  0  0  0  0  0  0  0
  1  2  1  0
  2  3  2  0
  4  2  1  0
  5  4  1  0
  6  5  1  0
  7  6  1  0
  8  7  1  0
  8  9  1  6
 10 11  2  0
 10  8  1  0
 13 12  1  6
 13 15  1  0
 14 13  1  0
 16 15  1  6
 16 17  1  0
 17 10  1  0
 18 19  2  0
 18 16  1  0
 20 18  1  0
 21 20  1  0
 21 22  1  1
 22 23  1  0
 23 31  1  0
 23 24  2  0
 24 25  1  0
 25 26  1  0
 26 27  2  0
 28 27  1  0
 29 28  2  0
 30 31  2  0
 30 29  1  0
 31 26  1  0
 32 21  1  0
 33 32  1  0
 34 32  2  0
M  END
$$$$
