RLW.pdb
     RDKit          3D

 34 35  0  0  1  0  0  0  0  0999 V2000
   29.7214  -30.4635  -17.5635 N   0  0  0  0  0  0  0  0  0  0  0  0
   29.6211  -31.1422  -16.2756 C   0  0  0  0  0  0  0  0  0  0  0  0
   30.6672  -31.5836  -15.7100 N   0  0  0  0  0  0  0  0  0  0  0  0
   28.3437  -31.2988  -15.6821 N   0  0  0  0  0  0  0  0  0  0  0  0
   27.1062  -30.9848  -16.3014 C   0  0  0  0  0  0  0  0  0  0  0  0
   26.4398  -29.7032  -15.9647 C   0  0  0  0  0  0  0  0  0  0  0  0
   25.3786  -29.9006  -14.8677 C   0  0  0  0  0  0  0  0  0  0  0  0
   24.0556  -30.2886  -15.4341 C   0  0  2  0  0  0  0  0  0  0  0  0
   23.4294  -29.1268  -16.0195 N   0  0  0  0  0  0  0  0  0  0  0  0
   23.1353  -30.7763  -14.3354 C   0  0  0  0  0  0  0  0  0  0  0  0
   23.6144  -31.0139  -13.2249 O   0  0  0  0  0  0  0  0  0  0  0  0
   30.6970  -32.1581  -14.8867 C   0  0  0  0  0  0  0  0  0  0  0  0
   21.3797  -29.2619  -11.4834 C   0  0  2  0  0  0  0  0  0  0  0  0
   21.3316  -28.1419  -12.5388 C   0  0  0  0  0  0  0  0  0  0  0  0
   20.2510  -27.1548  -12.1311 C   0  0  0  0  0  0  0  0  0  0  0  0
   21.0356  -28.8202  -13.8393 C   0  0  2  0  0  0  0  0  0  0  0  0
   20.6976  -30.2659  -13.8051 N   0  0  0  0  0  0  0  0  0  0  0  0
   21.7608  -30.9514  -14.5945 C   0  0  0  0  0  0  0  0  0  0  0  0
   19.3893  -30.6867  -14.2681 O   0  0  0  0  0  0  0  0  0  0  0  0
   18.3642  -29.9972  -13.8888 N   0  0  0  0  0  0  0  0  0  0  0  0
   19.1672  -31.7880  -15.1019 C   0  0  1  0  0  0  0  0  0  0  0  0
   19.1722  -31.7312  -16.5704 C   0  0  0  0  0  0  0  0  0  0  0  0
   20.4838  -32.1372  -17.1117 C   0  0  0  0  0  0  0  0  0  0  0  0
   20.5804  -32.0654  -18.5699 C   0  0  0  0  0  0  0  0  0  0  0  0
   20.5059  -30.9177  -19.3683 N   0  0  0  0  0  0  0  0  0  0  0  0
   20.5981  -31.2405  -20.6640 C   0  0  0  0  0  0  0  0  0  0  0  0
   20.7352  -32.5853  -20.7733 C   0  0  0  0  0  0  0  0  0  0  0  0
   20.8885  -33.4459  -21.8367 C   0  0  0  0  0  0  0  0  0  0  0  0
   21.0347  -34.8088  -21.6555 C   0  0  0  0  0  0  0  0  0  0  0  0
   21.0270  -35.3200  -20.3809 C   0  0  0  0  0  0  0  0  0  0  0  0
   20.8739  -34.4695  -19.3163 C   0  0  0  0  0  0  0  0  0  0  0  0
   20.7248  -33.0992  -19.4760 C   0  0  0  0  0  0  0  0  0  0  0  0
   18.0641  -32.5344  -17.0595 O   0  0  0  0  0  0  0  0  0  0  0  0
   17.4726  -32.4104  -18.3236 O   0  0  0  0  0  0  0  0  0  0  0  0
  1  2  1  0
  2  3  2  0
  4  2  1  0
  5  4  1  0
  6  5  1  0
  7  6  1  0
  8  7  1  0
  8  9  1  1
 10 11  2  0
 10  8  1  0
 13 12  1  1
 13 15  1  0
 14 13  1  0
 16 15  1  1
 16 17  1  0
 17 10  1  0
 18 19  2  0
 18 16  1  0
 20 18  1  0
 21 20  1  0
 21 22  1  6
 22 23  1  0
 23 31  1  0
 23 24  2  0
 24 25  1  0
 25 26  1  0
 26 27  2  0
 28 27  1  0
 29 28  2  0
 30 31  2  0
 30 29  1  0
 31 26  1  0
 32 21  1  0
 33 32  1  0
 34 32  2  0
M  END
$$$$
