RLW.pdb
     RDKit          3D

 34 35  0  0  1  0  0  0  0  0999 V2000
   29.6584  -21.0149  -18.5485 N   0  0  0  0  0  0  0  0  0  0  0  0
   29.4124  -19.6964  -19.1232 C   0  0  0  0  0  0  0  0  0  0  0  0
   30.1366  -19.2767  -20.0763 N   0  0  0  0  0  0  0  0  0  0  0  0
   28.3625  -18.9045  -18.5949 N   0  0  0  0  0  0  0  0  0  0  0  0
   27.3819  -19.3506  -17.6715 C   0  0  0  0  0  0  0  0  0  0  0  0
   26.3444  -20.3056  -18.1315 C   0  0  0  0  0  0  0  0  0  0  0  0
   25.3153  -20.5845  -17.0217 C   0  0  0  0  0  0  0  0  0  0  0  0
   25.9697  -20.9161  -15.7241 C   0  0  2  0  0  0  0  0  0  0  0  0
   26.9072  -21.9954  -15.9261 N   0  0  0  0  0  0  0  0  0  0  0  0
   24.9421  -21.4083  -14.7271 C   0  0  0  0  0  0  0  0  0  0  0  0
   24.2616  -22.3940  -15.0174 O   0  0  0  0  0  0  0  0  0  0  0  0
   30.0786  -18.3725  -20.5095 C   0  0  0  0  0  0  0  0  0  0  0  0
   25.9002  -22.7416  -11.0561 C   0  0  2  0  0  0  0  0  0  0  0  0
   25.8050  -21.2065  -10.9850 C   0  0  0  0  0  0  0  0  0  0  0  0
   26.3456  -20.7617   -9.6367 C   0  0  0  0  0  0  0  0  0  0  0  0
   24.3558  -20.8795  -11.1644 C   0  0  2  0  0  0  0  0  0  0  0  0
   23.7477  -21.1357  -12.4948 N   0  0  0  0  0  0  0  0  0  0  0  0
   24.7788  -20.7402  -13.4967 C   0  0  0  0  0  0  0  0  0  0  0  0
   22.4807  -20.5068  -12.8146 O   0  0  0  0  0  0  0  0  0  0  0  0
   22.3859  -19.2273  -12.6600 N   0  0  0  0  0  0  0  0  0  0  0  0
   21.3571  -21.1961  -13.2834 C   0  0  1  0  0  0  0  0  0  0  0  0
   20.0693  -20.5640  -13.6023 C   0  0  0  0  0  0  0  0  0  0  0  0
   20.0182  -20.1512  -15.0183 C   0  0  0  0  0  0  0  0  0  0  0  0
   20.2262  -21.2427  -15.9703 C   0  0  0  0  0  0  0  0  0  0  0  0
   19.6418  -22.5147  -15.9415 N   0  0  0  0  0  0  0  0  0  0  0  0
   20.0957  -23.2626  -16.9545 C   0  0  0  0  0  0  0  0  0  0  0  0
   20.9788  -22.5319  -17.6794 C   0  0  0  0  0  0  0  0  0  0  0  0
   21.7204  -22.7801  -18.8122 C   0  0  0  0  0  0  0  0  0  0  0  0
   22.5457  -21.8198  -19.3675 C   0  0  0  0  0  0  0  0  0  0  0  0
   22.6294  -20.5840  -18.7743 C   0  0  0  0  0  0  0  0  0  0  0  0
   21.8946  -20.3290  -17.6450 C   0  0  0  0  0  0  0  0  0  0  0  0
   21.0613  -21.2786  -17.0713 C   0  0  0  0  0  0  0  0  0  0  0  0
   19.0073  -21.4804  -13.2221 O   0  0  0  0  0  0  0  0  0  0  0  0
   17.6452  -21.1577  -13.1608 O   0  0  0  0  0  0  0  0  0  0  0  0
  1  2  1  0
  2  3  2  0
  4  2  1  0
  5  4  1  0
  6  5  1  0
  7  6  1  0
  8  7  1  0
  8  9  1  6
 10 11  2  0
 10  8  1  0
 13 12  1  6
 13 15  1  0
 14 13  1  0
 16 15  1  1
 16 17  1  0
 17 10  1  0
 18 19  2  0
 18 16  1  0
 20 18  1  0
 21 20  1  0
 21 22  1  1
 22 23  1  0
 23 31  1  0
 23 24  2  0
 24 25  1  0
 25 26  1  0
 26 27  2  0
 28 27  1  0
 29 28  2  0
 30 31  2  0
 30 29  1  0
 31 26  1  0
 32 21  1  0
 33 32  1  0
 34 32  2  0
M  END
$$$$
