RLW.pdb
     RDKit          3D

 34 35  0  0  1  0  0  0  0  0999 V2000
   27.4498  -19.6724  -17.5337 N   0  0  0  0  0  0  0  0  0  0  0  0
   28.8545  -20.0481  -17.6562 C   0  0  0  0  0  0  0  0  0  0  0  0
   29.3007  -20.4753  -18.7641 N   0  0  0  0  0  0  0  0  0  0  0  0
   29.6959  -19.9306  -16.5219 N   0  0  0  0  0  0  0  0  0  0  0  0
   29.2762  -20.0512  -15.1718 C   0  0  0  0  0  0  0  0  0  0  0  0
   28.9640  -21.3980  -14.6347 C   0  0  0  0  0  0  0  0  0  0  0  0
   28.5254  -21.3203  -13.1616 C   0  0  0  0  0  0  0  0  0  0  0  0
   27.1121  -20.8671  -13.0230 C   0  0  2  0  0  0  0  0  0  0  0  0
   27.0789  -19.4251  -12.9607 N   0  0  0  0  0  0  0  0  0  0  0  0
   26.5209  -21.3762  -11.7256 C   0  0  0  0  0  0  0  0  0  0  0  0
   26.3380  -22.5880  -11.5946 O   0  0  0  0  0  0  0  0  0  0  0  0
   30.2503  -20.7393  -18.9572 C   0  0  0  0  0  0  0  0  0  0  0  0
   27.7021  -21.4143   -7.6028 C   0  0  2  0  0  0  0  0  0  0  0  0
   27.3325  -20.0313   -8.1696 C   0  0  0  0  0  0  0  0  0  0  0  0
   27.7592  -18.9781   -7.1613 C   0  0  0  0  0  0  0  0  0  0  0  0
   25.8519  -20.0614   -8.3841 C   0  0  2  0  0  0  0  0  0  0  0  0
   25.3348  -20.8429   -9.5363 N   0  0  0  0  0  0  0  0  0  0  0  0
   26.1905  -20.4688  -10.6988 C   0  0  0  0  0  0  0  0  0  0  0  0
   23.9347  -20.7163   -9.8920 O   0  0  0  0  0  0  0  0  0  0  0  0
   23.0544  -21.0482   -9.0061 N   0  0  0  0  0  0  0  0  0  0  0  0
   23.4770  -20.2541  -11.1307 C   0  0  2  0  0  0  0  0  0  0  0  0
   22.0613  -20.1856  -11.5192 C   0  0  0  0  0  0  0  0  0  0  0  0
   21.9134  -19.6626  -12.8914 C   0  0  0  0  0  0  0  0  0  0  0  0
   20.5258  -19.5094  -13.3296 C   0  0  0  0  0  0  0  0  0  0  0  0
   19.6359  -18.4858  -12.9823 N   0  0  0  0  0  0  0  0  0  0  0  0
   18.4389  -18.6941  -13.5438 C   0  0  0  0  0  0  0  0  0  0  0  0
   18.4872  -19.8383  -14.2703 C   0  0  0  0  0  0  0  0  0  0  0  0
   17.5771  -20.5101  -15.0548 C   0  0  0  0  0  0  0  0  0  0  0  0
   17.9092  -21.6758  -15.7200 C   0  0  0  0  0  0  0  0  0  0  0  0
   19.1811  -22.1788  -15.5962 C   0  0  0  0  0  0  0  0  0  0  0  0
   20.0934  -21.5160  -14.8160 C   0  0  0  0  0  0  0  0  0  0  0  0
   19.7805  -20.3456  -14.1394 C   0  0  0  0  0  0  0  0  0  0  0  0
   21.4744  -21.5015  -11.3290 O   0  0  0  0  0  0  0  0  0  0  0  0
   20.1730  -21.7470  -10.8713 O   0  0  0  0  0  0  0  0  0  0  0  0
  1  2  1  0
  2  3  2  0
  4  2  1  0
  5  4  1  0
  6  5  1  0
  7  6  1  0
  8  7  1  0
  8  9  1  1
 10 11  2  0
 10  8  1  0
 13 12  1  6
 13 15  1  0
 14 13  1  0
 16 15  1  1
 16 17  1  0
 17 10  1  0
 18 19  2  0
 18 16  1  0
 20 18  1  0
 21 20  1  0
 21 22  1  6
 22 23  1  0
 23 31  1  0
 23 24  2  0
 24 25  1  0
 25 26  1  0
 26 27  2  0
 28 27  1  0
 29 28  2  0
 30 31  2  0
 30 29  1  0
 31 26  1  0
 32 21  1  0
 33 32  1  0
 34 32  2  0
M  END
$$$$
