RLW.pdb
     RDKit          3D

 34 35  0  0  1  0  0  0  0  0999 V2000
   12.8000  -15.1968    4.9993 N   0  0  0  0  0  0  0  0  0  0  0  0
   11.5871  -15.7462    4.4023 C   0  0  0  0  0  0  0  0  0  0  0  0
   10.6195  -14.9779    4.1149 N   0  0  0  0  0  0  0  0  0  0  0  0
   11.5149  -17.1405    4.1590 N   0  0  0  0  0  0  0  0  0  0  0  0
   12.6222  -17.9855    3.8886 C   0  0  0  0  0  0  0  0  0  0  0  0
   12.3727  -19.4020    3.5265 C   0  0  0  0  0  0  0  0  0  0  0  0
   13.6939  -20.1598    3.3060 C   0  0  0  0  0  0  0  0  0  0  0  0
   14.3635  -19.7570    2.0367 C   0  0  2  0  0  0  0  0  0  0  0  0
   14.3671  -20.8763    1.1247 N   0  0  0  0  0  0  0  0  0  0  0  0
   15.8111  -19.3977    2.2962 C   0  0  0  0  0  0  0  0  0  0  0  0
   16.6688  -20.2743    2.1743 O   0  0  0  0  0  0  0  0  0  0  0  0
    9.7545  -15.2516    3.6844 C   0  0  0  0  0  0  0  0  0  0  0  0
   18.5158  -14.0018    3.3172 C   0  0  1  0  0  0  0  0  0  0  0  0
   18.8359  -15.5072    3.3608 C   0  0  0  0  0  0  0  0  0  0  0  0
   19.9971  -15.7708    2.4173 C   0  0  0  0  0  0  0  0  0  0  0  0
   17.5794  -16.2031    2.9413 C   0  0  2  0  0  0  0  0  0  0  0  0
   17.5430  -17.6846    3.0380 N   0  0  0  0  0  0  0  0  0  0  0  0
   16.1537  -18.0826    2.6705 C   0  0  0  0  0  0  0  0  0  0  0  0
   17.9216  -18.3106    4.2902 O   0  0  0  0  0  0  0  0  0  0  0  0
   17.0813  -18.2566    5.2704 N   0  0  0  0  0  0  0  0  0  0  0  0
   19.1359  -18.9723    4.5025 C   0  0  1  0  0  0  0  0  0  0  0  0
   19.5101  -19.6368    5.7588 C   0  0  0  0  0  0  0  0  0  0  0  0
   20.2223  -20.9026    5.4968 C   0  0  0  0  0  0  0  0  0  0  0  0
   19.3679  -21.9807    4.9981 C   0  0  0  0  0  0  0  0  0  0  0  0
   18.0023  -22.1632    5.2470 N   0  0  0  0  0  0  0  0  0  0  0  0
   17.5627  -23.2804    4.6553 C   0  0  0  0  0  0  0  0  0  0  0  0
   18.5965  -23.8692    4.0044 C   0  0  0  0  0  0  0  0  0  0  0  0
   18.7167  -25.0011    3.2303 C   0  0  0  0  0  0  0  0  0  0  0  0
   19.9192  -25.3641    2.6524 C   0  0  0  0  0  0  0  0  0  0  0  0
   21.0251  -24.5755    2.8551 C   0  0  0  0  0  0  0  0  0  0  0  0
   20.9139  -23.4467    3.6257 C   0  0  0  0  0  0  0  0  0  0  0  0
   19.7172  -23.0650    4.2152 C   0  0  0  0  0  0  0  0  0  0  0  0
   20.2703  -18.6939    6.5620 O   0  0  0  0  0  0  0  0  0  0  0  0
   20.5890  -17.3830    6.1833 O   0  0  0  0  0  0  0  0  0  0  0  0
  1  2  1  0
  2  3  2  0
  4  2  1  0
  5  4  1  0
  6  5  1  0
  7  6  1  0
  8  7  1  0
  8  9  1  6
 10 11  2  0
 10  8  1  0
 13 12  1  1
 13 15  1  0
 14 13  1  0
 16 15  1  6
 16 17  1  0
 17 10  1  0
 18 19  2  0
 18 16  1  0
 20 18  1  0
 21 20  1  0
 21 22  1  1
 22 23  1  0
 23 31  1  0
 23 24  2  0
 24 25  1  0
 25 26  1  0
 26 27  2  0
 28 27  1  0
 29 28  2  0
 30 31  2  0
 30 29  1  0
 31 26  1  0
 32 21  1  0
 33 32  1  0
 34 32  2  0
M  END
$$$$
