NSF.pdb
     RDKit          3D

 26 26  0  0  1  0  0  0  0  0999 V2000
   14.6388  -11.6467  -16.3277 N   0  0  0  0  0  0  0  0  0  0  0  0
   15.9597  -12.1793  -16.3416 C   0  0  0  0  0  0  0  0  0  0  0  0
   16.3504  -12.8065  -17.3525 O   0  0  0  0  0  0  0  0  0  0  0  0
   16.8511  -11.9940  -15.1761 C   0  0  0  0  0  0  0  0  0  0  0  0
   17.7969  -10.8475  -15.5019 C   0  0  2  0  0  0  0  0  0  0  0  0
   18.9938  -11.4808  -16.0489 N   0  0  0  0  0  0  0  0  0  0  0  0
   18.1826  -10.1002  -14.2967 C   0  0  0  0  0  0  0  0  0  0  0  0
   18.9797  -10.5967  -13.4571 O   0  0  0  0  0  0  0  0  0  0  0  0
   18.0100   -6.0631  -14.1650 O   0  0  0  0  0  0  0  0  0  0  0  0
   18.7600   -6.7929  -13.2596 C   0  0  0  0  0  0  0  0  0  0  0  0
   18.0262   -8.0554  -12.8235 C   0  0  2  0  0  0  0  0  0  0  0  0
   17.6909   -8.7855  -14.0006 N   0  0  0  0  0  0  0  0  0  0  0  0
   16.8320   -7.7055  -11.9817 C   0  0  0  0  0  0  0  0  0  0  0  0
   15.7043   -7.5397  -12.5364 O   0  0  0  0  0  0  0  0  0  0  0  0
   16.9256   -7.5534  -10.5762 N   0  0  0  0  0  0  0  0  0  0  0  0
   15.8880   -7.0579   -9.7301 C   0  0  1  0  0  0  0  0  0  0  0  0
   15.4520   -8.0156   -8.6775 C   0  0  0  0  0  0  0  0  0  0  0  0
   14.2978   -7.5970   -7.8733 C   0  0  0  0  0  0  0  0  0  0  0  0
   14.4536   -6.7853   -6.7632 C   0  0  0  0  0  0  0  0  0  0  0  0
   13.3798   -6.3690   -5.9991 C   0  0  0  0  0  0  0  0  0  0  0  0
   12.1082   -6.7697   -6.3442 C   0  0  0  0  0  0  0  0  0  0  0  0
   11.9405   -7.5721   -7.4370 C   0  0  0  0  0  0  0  0  0  0  0  0
   13.0214   -7.9853   -8.2009 C   0  0  0  0  0  0  0  0  0  0  0  0
   16.0973   -5.6605   -9.2784 C   0  0  0  0  0  0  0  0  0  0  0  0
   15.1502   -4.6610   -9.2921 O   0  0  0  0  0  0  0  0  0  0  0  0
   17.2276   -5.3335   -8.8417 O   0  0  0  0  0  0  0  0  0  0  0  0
  1  2  1  0
  2  4  1  0
  3  2  2  0
  4  5  1  0
  5  6  1  1
  7  5  1  0
  8  7  2  0
  9 10  1  0
 11 10  1  6
 11 13  1  0
 11 12  1  0
 12  7  1  0
 13 15  1  0
 14 13  2  0
 16 15  1  0
 16 24  1  0
 16 17  1  1
 18 17  1  0
 18 23  2  0
 19 18  1  0
 20 19  2  0
 20 21  1  0
 21 22  2  0
 22 23  1  0
 24 26  2  0
 24 25  1  0
M  END
$$$$
