NSF.pdb
     RDKit          3D

 26 26  0  0  1  0  0  0  0  0999 V2000
   27.6392  -18.7843  -17.4949 N   0  0  0  0  0  0  0  0  0  0  0  0
   27.9513  -17.6073  -16.7560 C   0  0  0  0  0  0  0  0  0  0  0  0
   28.1607  -16.5395  -17.3756 O   0  0  0  0  0  0  0  0  0  0  0  0
   28.0287  -17.6518  -15.2797 C   0  0  0  0  0  0  0  0  0  0  0  0
   27.7363  -19.0817  -14.8496 C   0  0  2  0  0  0  0  0  0  0  0  0
   27.1750  -19.7308  -16.0314 N   0  0  0  0  0  0  0  0  0  0  0  0
   26.7332  -19.1338  -13.7768 C   0  0  0  0  0  0  0  0  0  0  0  0
   25.8252  -18.2641  -13.6997 O   0  0  0  0  0  0  0  0  0  0  0  0
   23.7269  -21.2658  -11.0786 O   0  0  0  0  0  0  0  0  0  0  0  0
   24.6476  -21.1177  -12.1012 C   0  0  0  0  0  0  0  0  0  0  0  0
   25.7883  -20.1948  -11.6894 C   0  0  2  0  0  0  0  0  0  0  0  0
   26.7185  -20.1540  -12.7685 N   0  0  0  0  0  0  0  0  0  0  0  0
   26.3987  -20.6574  -10.3968 C   0  0  0  0  0  0  0  0  0  0  0  0
   27.0946  -21.7168  -10.3790 O   0  0  0  0  0  0  0  0  0  0  0  0
   26.2204  -19.9422   -9.1868 N   0  0  0  0  0  0  0  0  0  0  0  0
   26.7783  -20.3069   -7.9243 C   0  0  1  0  0  0  0  0  0  0  0  0
   27.7313  -19.3077   -7.3689 C   0  0  0  0  0  0  0  0  0  0  0  0
   28.2607  -19.6057   -6.0328 C   0  0  0  0  0  0  0  0  0  0  0  0
   29.3310  -20.4662   -5.8609 C   0  0  0  0  0  0  0  0  0  0  0  0
   29.8534  -20.7513   -4.6135 C   0  0  0  0  0  0  0  0  0  0  0  0
   29.2979  -20.1659   -3.4976 C   0  0  0  0  0  0  0  0  0  0  0  0
   28.2401  -19.3155   -3.6530 C   0  0  0  0  0  0  0  0  0  0  0  0
   27.7212  -19.0319   -4.9072 C   0  0  0  0  0  0  0  0  0  0  0  0
   25.7867  -20.8500   -6.9638 C   0  0  0  0  0  0  0  0  0  0  0  0
   26.0616  -21.7126   -5.9264 O   0  0  0  0  0  0  0  0  0  0  0  0
   24.5846  -20.5102   -7.0854 O   0  0  0  0  0  0  0  0  0  0  0  0
  1  2  1  0
  2  4  1  0
  3  2  2  0
  4  5  1  0
  5  6  1  6
  7  5  1  0
  8  7  2  0
  9 10  1  0
 11 10  1  6
 11 13  1  0
 11 12  1  0
 12  7  1  0
 13 15  1  0
 14 13  2  0
 16 15  1  0
 16 24  1  0
 16 17  1  1
 18 17  1  0
 18 23  2  0
 19 18  1  0
 20 19  2  0
 20 21  1  0
 21 22  2  0
 22 23  1  0
 24 26  2  0
 24 25  1  0
M  END
$$$$
