NSF.pdb
     RDKit          3D

 26 26  0  0  1  0  0  0  0  0999 V2000
   24.5525  -20.9106   -7.4121 N   0  0  0  0  0  0  0  0  0  0  0  0
   25.9557  -20.6704   -7.3681 C   0  0  0  0  0  0  0  0  0  0  0  0
   26.5553  -20.7748   -6.2738 O   0  0  0  0  0  0  0  0  0  0  0  0
   26.6883  -20.3008   -8.5987 C   0  0  0  0  0  0  0  0  0  0  0  0
   25.6664  -20.1767   -9.7191 C   0  0  2  0  0  0  0  0  0  0  0  0
   24.9639  -21.4569   -9.7414 N   0  0  0  0  0  0  0  0  0  0  0  0
   26.3110  -19.9836  -11.0256 C   0  0  0  0  0  0  0  0  0  0  0  0
   27.1125  -19.0305  -11.2150 O   0  0  0  0  0  0  0  0  0  0  0  0
   24.7887  -22.0769  -14.3873 O   0  0  0  0  0  0  0  0  0  0  0  0
   26.1273  -21.7269  -14.3580 C   0  0  0  0  0  0  0  0  0  0  0  0
   26.3570  -20.4891  -13.4991 C   0  0  2  0  0  0  0  0  0  0  0  0
   26.0784  -20.8464  -12.1478 N   0  0  0  0  0  0  0  0  0  0  0  0
   25.5215  -19.3428  -13.9942 C   0  0  0  0  0  0  0  0  0  0  0  0
   24.3133  -19.2449  -13.6230 O   0  0  0  0  0  0  0  0  0  0  0  0
   26.0440  -18.3593  -14.8700 N   0  0  0  0  0  0  0  0  0  0  0  0
   25.3487  -17.1912  -15.3060 C   0  0  1  0  0  0  0  0  0  0  0  0
   26.1898  -15.9641  -15.3515 C   0  0  0  0  0  0  0  0  0  0  0  0
   27.3137  -15.9962  -16.2950 C   0  0  0  0  0  0  0  0  0  0  0  0
   28.4551  -16.7313  -16.0260 C   0  0  0  0  0  0  0  0  0  0  0  0
   29.5199  -16.7858  -16.9055 C   0  0  0  0  0  0  0  0  0  0  0  0
   29.4540  -16.0888  -18.0915 C   0  0  0  0  0  0  0  0  0  0  0  0
   28.3335  -15.3582  -18.3689 C   0  0  0  0  0  0  0  0  0  0  0  0
   27.2676  -15.3086  -17.4834 C   0  0  0  0  0  0  0  0  0  0  0  0
   24.4780  -17.4157  -16.4858 C   0  0  0  0  0  0  0  0  0  0  0  0
   24.5660  -18.4762  -17.3596 O   0  0  0  0  0  0  0  0  0  0  0  0
   23.5743  -16.5803  -16.7328 O   0  0  0  0  0  0  0  0  0  0  0  0
  1  2  1  0
  2  4  1  0
  3  2  2  0
  4  5  1  0
  5  6  1  6
  7  5  1  0
  8  7  2  0
  9 10  1  0
 11 10  1  6
 11 13  1  0
 11 12  1  0
 12  7  1  0
 13 15  1  0
 14 13  2  0
 16 15  1  0
 16 24  1  0
 16 17  1  6
 18 17  1  0
 18 23  2  0
 19 18  1  0
 20 19  2  0
 20 21  1  0
 21 22  2  0
 22 23  1  0
 24 26  2  0
 24 25  1  0
M  END
$$$$
