NSF.pdb
     RDKit          3D

 26 26  0  0  1  0  0  0  0  0999 V2000
   16.2242  -21.0129    1.6452 N   0  0  0  0  0  0  0  0  0  0  0  0
   17.0562  -21.1769    2.7896 C   0  0  0  0  0  0  0  0  0  0  0  0
   17.8044  -22.1787    2.8574 O   0  0  0  0  0  0  0  0  0  0  0  0
   17.0311  -20.1776    3.8797 C   0  0  0  0  0  0  0  0  0  0  0  0
   15.9591  -19.1539    3.5365 C   0  0  2  0  0  0  0  0  0  0  0  0
   16.4904  -18.4086    2.3984 N   0  0  0  0  0  0  0  0  0  0  0  0
   15.7346  -18.2093    4.6397 C   0  0  0  0  0  0  0  0  0  0  0  0
   15.0168  -17.1869    4.4779 O   0  0  0  0  0  0  0  0  0  0  0  0
   16.7133  -19.4368    8.3310 O   0  0  0  0  0  0  0  0  0  0  0  0
   15.8010  -18.3979    8.2718 C   0  0  0  0  0  0  0  0  0  0  0  0
   16.0409  -17.5198    7.0495 C   0  0  2  0  0  0  0  0  0  0  0  0
   16.3026  -18.3825    5.9456 N   0  0  0  0  0  0  0  0  0  0  0  0
   17.1500  -16.5415    7.3142 C   0  0  0  0  0  0  0  0  0  0  0  0
   18.3371  -16.8391    6.9834 O   0  0  0  0  0  0  0  0  0  0  0  0
   16.9107  -15.2865    7.9265 N   0  0  0  0  0  0  0  0  0  0  0  0
   17.9139  -14.3257    8.2559 C   0  0  1  0  0  0  0  0  0  0  0  0
   17.6423  -12.9589    7.7331 C   0  0  0  0  0  0  0  0  0  0  0  0
   17.9672  -12.7413    6.3184 C   0  0  0  0  0  0  0  0  0  0  0  0
   17.1385  -13.2069    5.3124 C   0  0  0  0  0  0  0  0  0  0  0  0
   17.4184  -13.0025    3.9745 C   0  0  0  0  0  0  0  0  0  0  0  0
   18.5574  -12.3146    3.6191 C   0  0  0  0  0  0  0  0  0  0  0  0
   19.3847  -11.8507    4.6022 C   0  0  0  0  0  0  0  0  0  0  0  0
   19.0978  -12.0573    5.9430 C   0  0  0  0  0  0  0  0  0  0  0  0
   18.3711  -14.3937    9.6655 C   0  0  0  0  0  0  0  0  0  0  0  0
   19.4664  -13.7428   10.1875 O   0  0  0  0  0  0  0  0  0  0  0  0
   17.7211  -15.1002   10.4741 O   0  0  0  0  0  0  0  0  0  0  0  0
  1  2  1  0
  2  4  1  0
  3  2  2  0
  4  5  1  0
  5  6  1  6
  7  5  1  0
  8  7  2  0
  9 10  1  0
 11 10  1  1
 11 13  1  0
 11 12  1  0
 12  7  1  0
 13 15  1  0
 14 13  2  0
 16 15  1  0
 16 24  1  0
 16 17  1  1
 18 17  1  0
 18 23  2  0
 19 18  1  0
 20 19  2  0
 20 21  1  0
 21 22  2  0
 22 23  1  0
 24 26  2  0
 24 25  1  0
M  END
$$$$
