NSF.pdb
     RDKit          3D

 26 26  0  0  1  0  0  0  0  0999 V2000
   28.3250  -18.4681  -16.8505 N   0  0  0  0  0  0  0  0  0  0  0  0
   28.9733  -17.9317  -15.7014 C   0  0  0  0  0  0  0  0  0  0  0  0
   30.1370  -17.4837  -15.8149 O   0  0  0  0  0  0  0  0  0  0  0  0
   28.2791  -17.9090  -14.3956 C   0  0  0  0  0  0  0  0  0  0  0  0
   26.9402  -18.6085  -14.5776 C   0  0  2  0  0  0  0  0  0  0  0  0
   26.0804  -17.6271  -15.2336 N   0  0  0  0  0  0  0  0  0  0  0  0
   26.3313  -18.9636  -13.2880 C   0  0  0  0  0  0  0  0  0  0  0  0
   25.9432  -18.0699  -12.4898 O   0  0  0  0  0  0  0  0  0  0  0  0
   23.5885  -21.7945  -12.7106 O   0  0  0  0  0  0  0  0  0  0  0  0
   24.7249  -22.0010  -11.9482 C   0  0  0  0  0  0  0  0  0  0  0  0
   25.4501  -20.6898  -11.6695 C   0  0  2  0  0  0  0  0  0  0  0  0
   26.1406  -20.3195  -12.8600 N   0  0  0  0  0  0  0  0  0  0  0  0
   26.3548  -20.8320  -10.4784 C   0  0  0  0  0  0  0  0  0  0  0  0
   27.6115  -20.8085  -10.6428 O   0  0  0  0  0  0  0  0  0  0  0  0
   25.8450  -20.9928   -9.1664 N   0  0  0  0  0  0  0  0  0  0  0  0
   26.6333  -21.0509   -7.9775 C   0  0  1  0  0  0  0  0  0  0  0  0
   27.6440  -19.9642   -7.8641 C   0  0  0  0  0  0  0  0  0  0  0  0
   28.3239  -19.8587   -6.5676 C   0  0  0  0  0  0  0  0  0  0  0  0
   27.8724  -18.9895   -5.5897 C   0  0  0  0  0  0  0  0  0  0  0  0
   28.4895  -18.8830   -4.3576 C   0  0  0  0  0  0  0  0  0  0  0  0
   29.5915  -19.6622   -4.0833 C   0  0  0  0  0  0  0  0  0  0  0  0
   30.0482  -20.5235   -5.0403 C   0  0  0  0  0  0  0  0  0  0  0  0
   29.4240  -20.6273   -6.2741 C   0  0  0  0  0  0  0  0  0  0  0  0
   25.8486  -21.3273   -6.7493 C   0  0  0  0  0  0  0  0  0  0  0  0
   26.2846  -22.0527   -5.6632 O   0  0  0  0  0  0  0  0  0  0  0  0
   24.6816  -20.8725   -6.6674 O   0  0  0  0  0  0  0  0  0  0  0  0
  1  2  1  0
  2  4  1  0
  3  2  2  0
  4  5  1  0
  5  6  1  1
  7  5  1  0
  8  7  2  0
  9 10  1  0
 11 10  1  6
 11 13  1  0
 11 12  1  0
 12  7  1  0
 13 15  1  0
 14 13  2  0
 16 15  1  0
 16 24  1  0
 16 17  1  1
 18 17  1  0
 18 23  2  0
 19 18  1  0
 20 19  2  0
 20 21  1  0
 21 22  2  0
 22 23  1  0
 24 26  2  0
 24 25  1  0
M  END
$$$$
