NSF.pdb
     RDKit          3D

 26 26  0  0  1  0  0  0  0  0999 V2000
   18.7976  -20.8484  -14.1753 N   0  0  0  0  0  0  0  0  0  0  0  0
   20.1096  -20.9273  -14.7238 C   0  0  0  0  0  0  0  0  0  0  0  0
   20.3407  -20.3792  -15.8257 O   0  0  0  0  0  0  0  0  0  0  0  0
   21.1786  -21.6494  -14.0003 C   0  0  0  0  0  0  0  0  0  0  0  0
   21.9454  -20.6251  -13.1769 C   0  0  2  0  0  0  0  0  0  0  0  0
   22.5768  -19.7421  -14.1539 N   0  0  0  0  0  0  0  0  0  0  0  0
   23.0038  -21.2535  -12.3740 C   0  0  0  0  0  0  0  0  0  0  0  0
   22.7182  -22.0269  -11.4217 O   0  0  0  0  0  0  0  0  0  0  0  0
   27.0354  -20.0742  -12.8182 O   0  0  0  0  0  0  0  0  0  0  0  0
   26.7517  -21.4012  -12.5467 C   0  0  0  0  0  0  0  0  0  0  0  0
   25.4414  -21.5417  -11.7813 C   0  0  2  0  0  0  0  0  0  0  0  0
   24.4013  -21.0356  -12.6140 N   0  0  0  0  0  0  0  0  0  0  0  0
   25.5306  -20.8447  -10.4533 C   0  0  0  0  0  0  0  0  0  0  0  0
   25.0059  -19.6992  -10.3131 O   0  0  0  0  0  0  0  0  0  0  0  0
   26.1874  -21.4307   -9.3432 N   0  0  0  0  0  0  0  0  0  0  0  0
   26.6236  -20.7286   -8.1791 C   0  0  1  0  0  0  0  0  0  0  0  0
   27.3669  -21.5715   -7.2033 C   0  0  0  0  0  0  0  0  0  0  0  0
   27.9520  -20.8589   -6.0612 C   0  0  0  0  0  0  0  0  0  0  0  0
   29.2273  -20.3252   -6.1259 C   0  0  0  0  0  0  0  0  0  0  0  0
   29.7931  -19.6399   -5.0673 C   0  0  0  0  0  0  0  0  0  0  0  0
   29.0732  -19.4774   -3.9046 C   0  0  0  0  0  0  0  0  0  0  0  0
   27.8136  -20.0003   -3.8270 C   0  0  0  0  0  0  0  0  0  0  0  0
   27.2504  -20.6855   -4.8929 C   0  0  0  0  0  0  0  0  0  0  0  0
   27.2217  -19.4019   -8.4666 C   0  0  0  0  0  0  0  0  0  0  0  0
   26.9037  -18.2222   -7.8317 O   0  0  0  0  0  0  0  0  0  0  0  0
   28.0961  -19.3191   -9.3633 O   0  0  0  0  0  0  0  0  0  0  0  0
  1  2  1  0
  2  4  1  0
  3  2  2  0
  4  5  1  0
  5  6  1  6
  7  5  1  0
  8  7  2  0
  9 10  1  0
 11 10  1  6
 11 13  1  0
 11 12  1  0
 12  7  1  0
 13 15  1  0
 14 13  2  0
 16 15  1  0
 16 24  1  0
 16 17  1  6
 18 17  1  0
 18 23  2  0
 19 18  1  0
 20 19  2  0
 20 21  1  0
 21 22  2  0
 22 23  1  0
 24 26  2  0
 24 25  1  0
M  END
$$$$
