NSF.pdb
     RDKit          3D

 26 26  0  0  1  0  0  0  0  0999 V2000
   17.0394  -14.7696  -14.5751 N   0  0  0  0  0  0  0  0  0  0  0  0
   17.6390  -15.1446  -15.8115 C   0  0  0  0  0  0  0  0  0  0  0  0
   18.2612  -16.2290  -15.8799 O   0  0  0  0  0  0  0  0  0  0  0  0
   17.5277  -14.2616  -16.9928 C   0  0  0  0  0  0  0  0  0  0  0  0
   16.7460  -13.0271  -16.5685 C   0  0  2  0  0  0  0  0  0  0  0  0
   15.4630  -13.1292  -17.2587 N   0  0  0  0  0  0  0  0  0  0  0  0
   17.4051  -11.7882  -17.0049 C   0  0  0  0  0  0  0  0  0  0  0  0
   17.0516  -11.2084  -18.0659 O   0  0  0  0  0  0  0  0  0  0  0  0
   17.7919   -8.6712  -14.9930 O   0  0  0  0  0  0  0  0  0  0  0  0
   18.0102   -8.8345  -16.3498 C   0  0  0  0  0  0  0  0  0  0  0  0
   19.0522   -9.9141  -16.6167 C   0  0  2  0  0  0  0  0  0  0  0  0
   18.4699  -11.1680  -16.2705 N   0  0  0  0  0  0  0  0  0  0  0  0
   20.3189   -9.6200  -15.8642 C   0  0  0  0  0  0  0  0  0  0  0  0
   20.4961  -10.1295  -14.7170 O   0  0  0  0  0  0  0  0  0  0  0  0
   21.3305   -8.7847  -16.3992 N   0  0  0  0  0  0  0  0  0  0  0  0
   22.6945   -8.7693  -15.9781 C   0  0  1  0  0  0  0  0  0  0  0  0
   23.5004   -9.9136  -16.4843 C   0  0  0  0  0  0  0  0  0  0  0  0
   24.9118   -9.9268  -16.0817 C   0  0  0  0  0  0  0  0  0  0  0  0
   25.3302  -10.6152  -14.9563 C   0  0  0  0  0  0  0  0  0  0  0  0
   26.6556  -10.6514  -14.5659 C   0  0  0  0  0  0  0  0  0  0  0  0
   27.5996   -9.9833  -15.3137 C   0  0  0  0  0  0  0  0  0  0  0  0
   27.1998   -9.2988  -16.4262 C   0  0  0  0  0  0  0  0  0  0  0  0
   25.8689   -9.2673  -16.8141 C   0  0  0  0  0  0  0  0  0  0  0  0
   23.3392   -7.4370  -16.0785 C   0  0  0  0  0  0  0  0  0  0  0  0
   24.1926   -6.8849  -15.1496 O   0  0  0  0  0  0  0  0  0  0  0  0
   23.1023   -6.7300  -17.0882 O   0  0  0  0  0  0  0  0  0  0  0  0
  1  2  1  0
  2  4  1  0
  3  2  2  0
  4  5  1  0
  5  6  1  6
  7  5  1  0
  8  7  2  0
  9 10  1  0
 11 10  1  1
 11 13  1  0
 11 12  1  0
 12  7  1  0
 13 15  1  0
 14 13  2  0
 16 15  1  0
 16 24  1  0
 16 17  1  6
 18 17  1  0
 18 23  2  0
 19 18  1  0
 20 19  2  0
 20 21  1  0
 21 22  2  0
 22 23  1  0
 24 26  2  0
 24 25  1  0
M  END
$$$$
