NSF.pdb
     RDKit          3D

 26 26  0  0  1  0  0  0  0  0999 V2000
   15.3030  -21.8435    0.9286 N   0  0  0  0  0  0  0  0  0  0  0  0
   15.8055  -21.2230    2.1081 C   0  0  0  0  0  0  0  0  0  0  0  0
   16.4799  -21.9055    2.9126 O   0  0  0  0  0  0  0  0  0  0  0  0
   15.5297  -19.7947    2.3751 C   0  0  0  0  0  0  0  0  0  0  0  0
   14.3623  -19.7290    3.3487 C   0  0  2  0  0  0  0  0  0  0  0  0
   13.2031  -19.3733    2.5347 N   0  0  0  0  0  0  0  0  0  0  0  0
   14.5538  -18.6790    4.3590 C   0  0  0  0  0  0  0  0  0  0  0  0
   14.2223  -17.4871    4.1218 O   0  0  0  0  0  0  0  0  0  0  0  0
   15.3329  -17.7468    9.0577 O   0  0  0  0  0  0  0  0  0  0  0  0
   15.2622  -18.6506    8.0122 C   0  0  0  0  0  0  0  0  0  0  0  0
   15.2711  -17.9395    6.6643 C   0  0  2  0  0  0  0  0  0  0  0  0
   15.1169  -18.9326    5.6538 N   0  0  0  0  0  0  0  0  0  0  0  0
   16.5228  -17.1234    6.5084 C   0  0  0  0  0  0  0  0  0  0  0  0
   17.5598  -17.6592    6.0138 O   0  0  0  0  0  0  0  0  0  0  0  0
   16.5829  -15.7629    6.8993 N   0  0  0  0  0  0  0  0  0  0  0  0
   17.7588  -14.9535    6.8880 C   0  0  1  0  0  0  0  0  0  0  0  0
   17.4981  -13.5052    6.6651 C   0  0  0  0  0  0  0  0  0  0  0  0
   18.6872  -12.6639    6.4844 C   0  0  0  0  0  0  0  0  0  0  0  0
   19.1372  -12.3199    5.2216 C   0  0  0  0  0  0  0  0  0  0  0  0
   20.2469  -11.5189    5.0284 C   0  0  0  0  0  0  0  0  0  0  0  0
   20.9357  -11.0423    6.1216 C   0  0  0  0  0  0  0  0  0  0  0  0
   20.5029  -11.3753    7.3737 C   0  0  0  0  0  0  0  0  0  0  0  0
   19.3878  -12.1779    7.5615 C   0  0  0  0  0  0  0  0  0  0  0  0
   18.7181  -15.2725    7.9735 C   0  0  0  0  0  0  0  0  0  0  0  0
   18.4873  -15.1161    9.3219 O   0  0  0  0  0  0  0  0  0  0  0  0
   19.8469  -15.7254    7.6634 O   0  0  0  0  0  0  0  0  0  0  0  0
  1  2  1  0
  2  4  1  0
  3  2  2  0
  4  5  1  0
  5  6  1  6
  7  5  1  0
  8  7  2  0
  9 10  1  0
 11 10  1  1
 11 13  1  0
 11 12  1  0
 12  7  1  0
 13 15  1  0
 14 13  2  0
 16 15  1  0
 16 24  1  0
 16 17  1  1
 18 17  1  0
 18 23  2  0
 19 18  1  0
 20 19  2  0
 20 21  1  0
 21 22  2  0
 22 23  1  0
 24 26  2  0
 24 25  1  0
M  END
$$$$
