NSF.pdb
     RDKit          3D

 26 26  0  0  1  0  0  0  0  0999 V2000
   29.4182  -22.9469  -20.5355 N   0  0  0  0  0  0  0  0  0  0  0  0
   30.2187  -23.4908  -19.4904 C   0  0  0  0  0  0  0  0  0  0  0  0
   31.0602  -24.3754  -19.7684 O   0  0  0  0  0  0  0  0  0  0  0  0
   30.0525  -23.0164  -18.0994 C   0  0  0  0  0  0  0  0  0  0  0  0
   28.9017  -22.0212  -18.0904 C   0  0  2  0  0  0  0  0  0  0  0  0
   29.4041  -20.8469  -18.7987 N   0  0  0  0  0  0  0  0  0  0  0  0
   28.5433  -21.6151  -16.7242 C   0  0  0  0  0  0  0  0  0  0  0  0
   28.7366  -22.3890  -15.7493 O   0  0  0  0  0  0  0  0  0  0  0  0
   26.6441  -17.9778  -16.1367 O   0  0  0  0  0  0  0  0  0  0  0  0
   27.4380  -18.4291  -15.0969 C   0  0  0  0  0  0  0  0  0  0  0  0
   27.5518  -19.9488  -15.1067 C   0  0  2  0  0  0  0  0  0  0  0  0
   27.9634  -20.3402  -16.4138 N   0  0  0  0  0  0  0  0  0  0  0  0
   26.2550  -20.5761  -14.6801 C   0  0  0  0  0  0  0  0  0  0  0  0
   25.3987  -20.8977  -15.5577 O   0  0  0  0  0  0  0  0  0  0  0  0
   25.9552  -20.8221  -13.3174 N   0  0  0  0  0  0  0  0  0  0  0  0
   24.7293  -21.3665  -12.8287 C   0  0  1  0  0  0  0  0  0  0  0  0
   24.8646  -22.1216  -11.5533 C   0  0  0  0  0  0  0  0  0  0  0  0
   25.4141  -21.3668  -10.4208 C   0  0  0  0  0  0  0  0  0  0  0  0
   26.7782  -21.3032  -10.1955 C   0  0  0  0  0  0  0  0  0  0  0  0
   27.3180  -20.5884   -9.1430 C   0  0  0  0  0  0  0  0  0  0  0  0
   26.4800  -19.9137   -8.2832 C   0  0  0  0  0  0  0  0  0  0  0  0
   25.1313  -19.9692   -8.4934 C   0  0  0  0  0  0  0  0  0  0  0  0
   24.5955  -20.6867   -9.5521 C   0  0  0  0  0  0  0  0  0  0  0  0
   23.5843  -20.4260  -12.8984 C   0  0  0  0  0  0  0  0  0  0  0  0
   23.6747  -19.0561  -13.0041 O   0  0  0  0  0  0  0  0  0  0  0  0
   22.4201  -20.8933  -12.8586 O   0  0  0  0  0  0  0  0  0  0  0  0
  1  2  1  0
  2  4  1  0
  3  2  2  0
  4  5  1  0
  5  6  1  6
  7  5  1  0
  8  7  2  0
  9 10  1  0
 11 10  1  6
 11 13  1  0
 11 12  1  0
 12  7  1  0
 13 15  1  0
 14 13  2  0
 16 15  1  0
 16 24  1  0
 16 17  1  1
 18 17  1  0
 18 23  2  0
 19 18  1  0
 20 19  2  0
 20 21  1  0
 21 22  2  0
 22 23  1  0
 24 26  2  0
 24 25  1  0
M  END
$$$$
