NSF.pdb
     RDKit          3D

 26 26  0  0  1  0  0  0  0  0999 V2000
   15.4989  -23.1936    1.0008 N   0  0  0  0  0  0  0  0  0  0  0  0
   15.1156  -22.1228    0.1435 C   0  0  0  0  0  0  0  0  0  0  0  0
   15.1226  -22.3050   -1.0953 O   0  0  0  0  0  0  0  0  0  0  0  0
   14.7188  -20.8166    0.7127 C   0  0  0  0  0  0  0  0  0  0  0  0
   14.7067  -20.9629    2.2272 C   0  0  2  0  0  0  0  0  0  0  0  0
   13.3718  -21.4568    2.5544 N   0  0  0  0  0  0  0  0  0  0  0  0
   14.8964  -19.6707    2.9009 C   0  0  0  0  0  0  0  0  0  0  0  0
   15.6938  -18.8125    2.4379 O   0  0  0  0  0  0  0  0  0  0  0  0
   12.4773  -16.9077    5.6658 O   0  0  0  0  0  0  0  0  0  0  0  0
   13.3251  -17.9815    5.8741 C   0  0  0  0  0  0  0  0  0  0  0  0
   14.3869  -18.0678    4.7843 C   0  0  2  0  0  0  0  0  0  0  0  0
   14.2029  -19.3057    4.1025 N   0  0  0  0  0  0  0  0  0  0  0  0
   15.7600  -17.9135    5.3743 C   0  0  0  0  0  0  0  0  0  0  0  0
   16.4244  -18.9466    5.6877 O   0  0  0  0  0  0  0  0  0  0  0  0
   16.3415  -16.6403    5.5937 N   0  0  0  0  0  0  0  0  0  0  0  0
   17.6030  -16.4076    6.2204 C   0  0  1  0  0  0  0  0  0  0  0  0
   18.7230  -16.1799    5.2670 C   0  0  0  0  0  0  0  0  0  0  0  0
   18.6132  -14.9796    4.4295 C   0  0  0  0  0  0  0  0  0  0  0  0
   19.0622  -13.7493    4.8769 C   0  0  0  0  0  0  0  0  0  0  0  0
   18.9801  -12.6088    4.1005 C   0  0  0  0  0  0  0  0  0  0  0  0
   18.4345  -12.6875    2.8384 C   0  0  0  0  0  0  0  0  0  0  0  0
   17.9863  -13.8957    2.3850 C   0  0  0  0  0  0  0  0  0  0  0  0
   18.0728  -15.0369    3.1678 C   0  0  0  0  0  0  0  0  0  0  0  0
   17.5392  -15.4720    7.3698 C   0  0  0  0  0  0  0  0  0  0  0  0
   16.4861  -14.6368    7.6689 O   0  0  0  0  0  0  0  0  0  0  0  0
   18.5180  -15.4162    8.1536 O   0  0  0  0  0  0  0  0  0  0  0  0
  1  2  1  0
  2  4  1  0
  3  2  2  0
  4  5  1  0
  5  6  1  1
  7  5  1  0
  8  7  2  0
  9 10  1  0
 11 10  1  1
 11 13  1  0
 11 12  1  0
 12  7  1  0
 13 15  1  0
 14 13  2  0
 16 15  1  0
 16 24  1  0
 16 17  1  6
 18 17  1  0
 18 23  2  0
 19 18  1  0
 20 19  2  0
 20 21  1  0
 21 22  2  0
 22 23  1  0
 24 26  2  0
 24 25  1  0
M  END
$$$$
