NSF.pdb
     RDKit          3D

 26 26  0  0  1  0  0  0  0  0999 V2000
   28.8456  -20.8796  -18.4558 N   0  0  0  0  0  0  0  0  0  0  0  0
   27.6792  -20.0820  -18.2768 C   0  0  0  0  0  0  0  0  0  0  0  0
   27.7891  -18.8348  -18.2892 O   0  0  0  0  0  0  0  0  0  0  0  0
   26.3610  -20.7223  -18.0768 C   0  0  0  0  0  0  0  0  0  0  0  0
   26.5792  -22.2281  -18.0794 C   0  0  2  0  0  0  0  0  0  0  0  0
   26.9059  -22.5663  -19.4620 N   0  0  0  0  0  0  0  0  0  0  0  0
   25.3590  -22.9561  -17.7044 C   0  0  0  0  0  0  0  0  0  0  0  0
   24.4592  -23.1886  -18.5547 O   0  0  0  0  0  0  0  0  0  0  0  0
   24.7844  -24.8592  -13.8689 O   0  0  0  0  0  0  0  0  0  0  0  0
   24.3180  -25.2850  -15.1003 C   0  0  0  0  0  0  0  0  0  0  0  0
   23.9180  -24.1056  -15.9786 C   0  0  2  0  0  0  0  0  0  0  0  0
   25.1144  -23.4413  -16.3767 N   0  0  0  0  0  0  0  0  0  0  0  0
   22.9559  -23.2101  -15.2506 C   0  0  0  0  0  0  0  0  0  0  0  0
   23.3729  -22.1237  -14.7477 O   0  0  0  0  0  0  0  0  0  0  0  0
   21.5863  -23.5428  -15.1067 N   0  0  0  0  0  0  0  0  0  0  0  0
   20.5957  -22.7118  -14.5015 C   0  0  1  0  0  0  0  0  0  0  0  0
   20.5859  -21.3114  -15.0055 C   0  0  0  0  0  0  0  0  0  0  0  0
   19.9766  -21.1134  -16.3261 C   0  0  0  0  0  0  0  0  0  0  0  0
   20.7446  -20.7760  -17.4269 C   0  0  0  0  0  0  0  0  0  0  0  0
   20.1937  -20.5969  -18.6818 C   0  0  0  0  0  0  0  0  0  0  0  0
   18.8366  -20.7564  -18.8539 C   0  0  0  0  0  0  0  0  0  0  0  0
   18.0668  -21.0882  -17.7752 C   0  0  0  0  0  0  0  0  0  0  0  0
   18.6253  -21.2682  -16.5188 C   0  0  0  0  0  0  0  0  0  0  0  0
   19.2659  -23.3570  -14.3752 C   0  0  0  0  0  0  0  0  0  0  0  0
   18.9006  -24.5614  -14.9337 O   0  0  0  0  0  0  0  0  0  0  0  0
   18.3771  -22.7748  -13.7070 O   0  0  0  0  0  0  0  0  0  0  0  0
  1  2  1  0
  2  4  1  0
  3  2  2  0
  4  5  1  0
  5  6  1  6
  7  5  1  0
  8  7  2  0
  9 10  1  0
 11 10  1  1
 11 13  1  0
 11 12  1  0
 12  7  1  0
 13 15  1  0
 14 13  2  0
 16 15  1  0
 16 24  1  0
 16 17  1  6
 18 17  1  0
 18 23  2  0
 19 18  1  0
 20 19  2  0
 20 21  1  0
 21 22  2  0
 22 23  1  0
 24 26  2  0
 24 25  1  0
M  END
$$$$
