QVR.pdb
     RDKit          3D

 28 27  0  0  1  0  0  0  0  0999 V2000
   14.5844  -14.2864   17.1989 N   0  0  0  0  0  0  0  0  0  0  0  0
   13.7407  -13.7617   18.2534 C   0  0  0  0  0  0  0  0  0  0  0  0
   14.2167  -13.5744   19.3695 O   0  0  0  0  0  0  0  0  0  0  0  0
   12.3425  -13.4823   17.9264 C   0  0  0  0  0  0  0  0  0  0  0  0
   11.4273  -14.6635   17.8788 C   0  0  0  0  0  0  0  0  0  0  0  0
   10.0334  -14.4787   18.2904 C   0  0  2  0  0  0  0  0  0  0  0  0
    9.6582  -13.0670   18.1980 N   0  0  0  0  0  0  0  0  0  0  0  0
    9.4371  -15.1131   19.4468 C   0  0  0  0  0  0  0  0  0  0  0  0
    9.0281  -14.4128   20.4600 O   0  0  0  0  0  0  0  0  0  0  0  0
    7.0515  -18.5115   19.1706 C   0  0  0  0  0  0  0  0  0  0  0  0
    8.0198  -18.5303   20.3294 C   0  0  2  0  0  0  0  0  0  0  0  0
    7.3460  -19.2885   21.4384 C   0  0  0  0  0  0  0  0  0  0  0  0
    8.5878  -17.2062   20.6872 C   0  0  2  0  0  0  0  0  0  0  0  0
    9.2460  -16.4960   19.6123 N   0  0  0  0  0  0  0  0  0  0  0  0
    9.4043  -17.2079   21.9071 C   0  0  0  0  0  0  0  0  0  0  0  0
   10.5761  -17.7020   21.9390 O   0  0  0  0  0  0  0  0  0  0  0  0
    8.8898  -16.3742   29.4575 N   0  0  0  0  0  0  0  0  0  0  0  0
    9.8081  -15.3064   29.5984 C   0  0  0  0  0  0  0  0  0  0  0  0
   10.5706  -15.2170   30.6437 N   0  0  0  0  0  0  0  0  0  0  0  0
    9.9519  -14.2807   28.6232 N   0  0  0  0  0  0  0  0  0  0  0  0
    9.2126  -14.3230   27.3769 C   0  0  0  0  0  0  0  0  0  0  0  0
    9.8497  -15.4187   26.5208 C   0  0  0  0  0  0  0  0  0  0  0  0
    9.2141  -15.5113   25.1763 C   0  0  0  0  0  0  0  0  0  0  0  0
    9.7754  -16.6532   24.3312 C   0  0  2  0  0  0  0  0  0  0  0  0
    8.9493  -16.6550   23.1238 N   0  0  0  0  0  0  0  0  0  0  0  0
    9.7547  -17.9472   24.9994 C   0  0  0  0  0  0  0  0  0  0  0  0
   10.8982  -18.4638   25.6209 O   0  0  0  0  0  0  0  0  0  0  0  0
    8.7336  -18.6865   25.0702 O   0  0  0  0  0  0  0  0  0  0  0  0
  2  1  1  0
  2  4  1  0
  3  2  2  0
  5  4  1  0
  6  5  1  0
  6  7  1  1
  8  9  2  0
  8  6  1  0
 11 10  1  6
 11 13  1  0
 12 11  1  0
 13 14  1  6
 13 15  1  0
 14  8  1  0
 15 16  2  0
 15 25  1  0
 17 18  1  0
 18 20  1  0
 18 19  2  0
 20 21  1  0
 21 22  1  0
 23 22  1  0
 24 23  1  1
 24 26  1  0
 25 24  1  0
 26 28  2  0
 26 27  1  0
M  END
$$$$
