QVR.pdb
     RDKit          3D

 28 27  0  0  1  0  0  0  0  0999 V2000
   11.9285  -18.0295   14.1984 N   0  0  0  0  0  0  0  0  0  0  0  0
   10.5742  -17.7371   13.7747 C   0  0  0  0  0  0  0  0  0  0  0  0
   10.1980  -18.1011   12.6642 O   0  0  0  0  0  0  0  0  0  0  0  0
    9.7150  -17.0083   14.7078 C   0  0  0  0  0  0  0  0  0  0  0  0
   10.3089  -16.6933   16.0431 C   0  0  0  0  0  0  0  0  0  0  0  0
    9.5135  -16.9756   17.2406 C   0  0  2  0  0  0  0  0  0  0  0  0
    8.1171  -17.2215   16.8780 N   0  0  0  0  0  0  0  0  0  0  0  0
    9.6188  -16.2335   18.4791 C   0  0  0  0  0  0  0  0  0  0  0  0
   10.7309  -16.1974   19.1470 O   0  0  0  0  0  0  0  0  0  0  0  0
    7.6375  -12.6625   19.3436 C   0  0  0  0  0  0  0  0  0  0  0  0
    7.5817  -13.6893   20.4497 C   0  0  2  0  0  0  0  0  0  0  0  0
    7.5704  -12.9249   21.7435 C   0  0  0  0  0  0  0  0  0  0  0  0
    8.5830  -14.7797   20.3376 C   0  0  2  0  0  0  0  0  0  0  0  0
    8.5805  -15.5059   19.0864 N   0  0  0  0  0  0  0  0  0  0  0  0
    8.6145  -15.6924   21.4868 C   0  0  0  0  0  0  0  0  0  0  0  0
    7.9435  -16.7728   21.5142 O   0  0  0  0  0  0  0  0  0  0  0  0
   14.1878  -22.1108   23.8050 N   0  0  0  0  0  0  0  0  0  0  0  0
   14.0016  -20.7555   23.4419 C   0  0  0  0  0  0  0  0  0  0  0  0
   14.8667  -19.8503   23.7799 N   0  0  0  0  0  0  0  0  0  0  0  0
   12.8755  -20.3053   22.6983 N   0  0  0  0  0  0  0  0  0  0  0  0
   12.7643  -18.9250   22.2693 C   0  0  0  0  0  0  0  0  0  0  0  0
   11.7758  -18.2446   23.2176 C   0  0  0  0  0  0  0  0  0  0  0  0
   10.9814  -17.1900   22.5267 C   0  0  0  0  0  0  0  0  0  0  0  0
    9.9596  -16.5198   23.4432 C   0  0  2  0  0  0  0  0  0  0  0  0
    9.3966  -15.4386   22.6344 N   0  0  0  0  0  0  0  0  0  0  0  0
   10.5230  -16.0217   24.6905 C   0  0  0  0  0  0  0  0  0  0  0  0
   10.5328  -14.6538   24.9897 O   0  0  0  0  0  0  0  0  0  0  0  0
   11.0332  -16.7616   25.5774 O   0  0  0  0  0  0  0  0  0  0  0  0
  2  1  1  0
  2  4  1  0
  3  2  2  0
  5  4  1  0
  6  5  1  0
  6  7  1  6
  8  9  2  0
  8  6  1  0
 11 10  1  6
 11 13  1  0
 12 11  1  0
 13 14  1  6
 13 15  1  0
 14  8  1  0
 15 16  2  0
 15 25  1  0
 17 18  1  0
 18 20  1  0
 18 19  2  0
 20 21  1  0
 21 22  1  0
 23 22  1  0
 24 23  1  6
 24 26  1  0
 25 24  1  0
 26 28  2  0
 26 27  1  0
M  END
$$$$
