QVR.pdb
     RDKit          3D

 28 27  0  0  1  0  0  0  0  0999 V2000
   14.1980  -16.2692   14.8667 N   0  0  0  0  0  0  0  0  0  0  0  0
   13.1728  -17.0171   14.1677 C   0  0  0  0  0  0  0  0  0  0  0  0
   13.4850  -17.7154   13.2073 O   0  0  0  0  0  0  0  0  0  0  0  0
   11.7972  -16.8947   14.6501 C   0  0  0  0  0  0  0  0  0  0  0  0
   11.5984  -16.0545   15.8706 C   0  0  0  0  0  0  0  0  0  0  0  0
   10.6205  -16.4984   16.8671 C   0  0  2  0  0  0  0  0  0  0  0  0
    9.3341  -16.7795   16.2281 N   0  0  0  0  0  0  0  0  0  0  0  0
   10.4462  -15.8815   18.1650 C   0  0  0  0  0  0  0  0  0  0  0  0
   11.3846  -15.9260   19.0604 O   0  0  0  0  0  0  0  0  0  0  0  0
    7.9130  -12.5275   18.8592 C   0  0  0  0  0  0  0  0  0  0  0  0
    7.8737  -13.6303   19.8902 C   0  0  2  0  0  0  0  0  0  0  0  0
    7.5712  -12.9741   21.2080 C   0  0  0  0  0  0  0  0  0  0  0  0
    9.0401  -14.5485   19.8640 C   0  0  2  0  0  0  0  0  0  0  0  0
    9.2947  -15.2014   18.5984 N   0  0  0  0  0  0  0  0  0  0  0  0
    9.0832  -15.5035   20.9778 C   0  0  0  0  0  0  0  0  0  0  0  0
    8.3789  -16.5628   20.9915 O   0  0  0  0  0  0  0  0  0  0  0  0
   12.8100  -20.0758   19.8400 N   0  0  0  0  0  0  0  0  0  0  0  0
   13.8105  -19.0789   19.9316 C   0  0  0  0  0  0  0  0  0  0  0  0
   14.8634  -19.1202   19.1753 N   0  0  0  0  0  0  0  0  0  0  0  0
   13.7300  -17.9884   20.8416 N   0  0  0  0  0  0  0  0  0  0  0  0
   13.1640  -18.1576   22.1655 C   0  0  0  0  0  0  0  0  0  0  0  0
   11.7203  -17.6573   22.0972 C   0  0  0  0  0  0  0  0  0  0  0  0
   11.3857  -16.7714   23.2477 C   0  0  0  0  0  0  0  0  0  0  0  0
    9.9430  -16.2711   23.2124 C   0  0  2  0  0  0  0  0  0  0  0  0
    9.9139  -15.3167   22.1040 N   0  0  0  0  0  0  0  0  0  0  0  0
    9.4989  -15.6622   24.4588 C   0  0  0  0  0  0  0  0  0  0  0  0
    9.1420  -16.4442   25.5641 O   0  0  0  0  0  0  0  0  0  0  0  0
    9.4026  -14.4161   24.6381 O   0  0  0  0  0  0  0  0  0  0  0  0
  2  1  1  0
  2  4  1  0
  3  2  2  0
  5  4  1  0
  6  5  1  0
  6  7  1  6
  8  9  2  0
  8  6  1  0
 11 10  1  6
 11 13  1  0
 12 11  1  0
 13 14  1  6
 13 15  1  0
 14  8  1  0
 15 16  2  0
 15 25  1  0
 17 18  1  0
 18 20  1  0
 18 19  2  0
 20 21  1  0
 21 22  1  0
 23 22  1  0
 24 23  1  1
 24 26  1  0
 25 24  1  0
 26 28  2  0
 26 27  1  0
M  END
$$$$
