QVR.pdb
     RDKit          3D

 28 27  0  0  1  0  0  0  0  0999 V2000
    8.1063  -18.4512   17.6445 N   0  0  0  0  0  0  0  0  0  0  0  0
    6.9690  -18.5129   16.7491 C   0  0  0  0  0  0  0  0  0  0  0  0
    5.9522  -19.1016   17.1055 O   0  0  0  0  0  0  0  0  0  0  0  0
    7.0973  -17.8623   15.4451 C   0  0  0  0  0  0  0  0  0  0  0  0
    8.4117  -17.2095   15.1601 C   0  0  0  0  0  0  0  0  0  0  0  0
    8.5370  -15.7690   15.3964 C   0  0  2  0  0  0  0  0  0  0  0  0
    8.9569  -15.0868   14.1715 N   0  0  0  0  0  0  0  0  0  0  0  0
    9.1585  -15.1893   16.5682 C   0  0  0  0  0  0  0  0  0  0  0  0
   10.4080  -14.8386   16.5607 O   0  0  0  0  0  0  0  0  0  0  0  0
    7.0113  -14.1511   20.4576 C   0  0  0  0  0  0  0  0  0  0  0  0
    8.1860  -13.4919   19.7747 C   0  0  2  0  0  0  0  0  0  0  0  0
    7.6338  -12.3273   19.0019 C   0  0  0  0  0  0  0  0  0  0  0  0
    9.0710  -14.4192   19.0258 C   0  0  2  0  0  0  0  0  0  0  0  0
    8.5219  -14.9556   17.7996 N   0  0  0  0  0  0  0  0  0  0  0  0
    9.6764  -15.4738   19.8481 C   0  0  0  0  0  0  0  0  0  0  0  0
    9.4272  -16.7072   19.6615 O   0  0  0  0  0  0  0  0  0  0  0  0
   16.7325  -13.3859   19.7524 N   0  0  0  0  0  0  0  0  0  0  0  0
   16.9531  -14.3421   18.7325 C   0  0  0  0  0  0  0  0  0  0  0  0
   18.1515  -14.7485   18.4483 N   0  0  0  0  0  0  0  0  0  0  0  0
   15.8968  -14.9084   17.9662 N   0  0  0  0  0  0  0  0  0  0  0  0
   14.5255  -14.4731   18.1441 C   0  0  0  0  0  0  0  0  0  0  0  0
   13.9846  -15.2044   19.3738 C   0  0  0  0  0  0  0  0  0  0  0  0
   12.5416  -14.9113   19.6026 C   0  0  0  0  0  0  0  0  0  0  0  0
   11.9825  -15.6100   20.8405 C   0  0  2  0  0  0  0  0  0  0  0  0
   10.5814  -15.1927   20.8945 N   0  0  0  0  0  0  0  0  0  0  0  0
   12.6890  -15.2841   22.0717 C   0  0  0  0  0  0  0  0  0  0  0  0
   12.1205  -14.4435   23.0365 O   0  0  0  0  0  0  0  0  0  0  0  0
   13.8381  -15.7207   22.3604 O   0  0  0  0  0  0  0  0  0  0  0  0
  2  1  1  0
  2  4  1  0
  3  2  2  0
  5  4  1  0
  6  5  1  0
  6  7  1  6
  8  9  2  0
  8  6  1  0
 11 10  1  6
 11 13  1  0
 12 11  1  0
 13 14  1  6
 13 15  1  0
 14  8  1  0
 15 16  2  0
 15 25  1  0
 17 18  1  0
 18 20  1  0
 18 19  2  0
 20 21  1  0
 21 22  1  0
 23 22  1  0
 24 23  1  6
 24 26  1  0
 25 24  1  0
 26 28  2  0
 26 27  1  0
M  END
$$$$
