KLG.pdb
     RDKit          3D

 22 21  0  0  1  0  0  0  0  0999 V2000
    7.1349  -15.7955   21.7025 N   0  0  0  0  0  0  0  0  0  0  0  0
    8.3074  -14.9927   21.6216 C   0  0  1  0  0  0  0  0  0  0  0  0
    8.1155  -13.7922   20.7875 C   0  0  0  0  0  0  0  0  0  0  0  0
    7.8068  -14.1532   19.3650 C   0  0  0  0  0  0  0  0  0  0  0  0
    8.3879  -13.2473   18.3226 C   0  0  0  0  0  0  0  0  0  0  0  0
    7.9397  -13.5858   16.9159 C   0  0  0  0  0  0  0  0  0  0  0  0
    8.4718  -12.6121   16.0089 N   0  0  0  0  0  0  0  0  0  0  0  0
    8.8200  -14.6649   23.0027 C   0  0  0  0  0  0  0  0  0  0  0  0
    9.9495  -14.1450   23.1278 O   0  0  0  0  0  0  0  0  0  0  0  0
    7.5843  -11.4573   25.9508 C   0  0  0  0  0  0  0  0  0  0  0  0
    6.7716  -12.6818   25.8867 C   0  0  2  0  0  0  0  0  0  0  0  0
    5.5528  -12.4946   26.8310 C   0  0  0  0  0  0  0  0  0  0  0  0
    7.3227  -13.9927   26.1817 C   0  0  0  0  0  0  0  0  0  0  0  0
    8.5032  -14.5549   25.5131 C   0  0  2  0  0  0  0  0  0  0  0  0
    8.0349  -14.9407   24.1500 N   0  0  0  0  0  0  0  0  0  0  0  0
    8.9776  -15.7942   26.1237 C   0  0  0  0  0  0  0  0  0  0  0  0
    9.3097  -15.8651   27.3285 O   0  0  0  0  0  0  0  0  0  0  0  0
    9.0761  -16.9782   25.3387 N   0  0  0  0  0  0  0  0  0  0  0  0
    9.5684  -18.2219   25.9369 C   0  0  0  0  0  0  0  0  0  0  0  0
   11.0243  -18.3599   25.8797 C   0  0  0  0  0  0  0  0  0  0  0  0
   11.5696  -19.5121   26.4631 O   0  0  0  0  0  0  0  0  0  0  0  0
   11.8356  -17.5688   25.3708 O   0  0  0  0  0  0  0  0  0  0  0  0
  2  8  1  0
  2  1  1  1
  3  2  1  0
  4  3  1  0
  5  4  1  0
  6  5  1  0
  7  6  1  0
  8  9  2  0
 11 12  1  1
 11 10  1  0
 13 11  1  0
 14 13  1  1
 15 14  1  0
 15  8  1  0
 16 14  1  0
 17 16  2  0
 18 16  1  0
 19 18  1  0
 20 19  1  0
 20 21  1  0
 22 20  2  0
M  END
$$$$
