KLG.pdb
     RDKit          3D

 22 21  0  0  1  0  0  0  0  0999 V2000
   10.2920  -18.0141   16.7707 N   0  0  0  0  0  0  0  0  0  0  0  0
    9.5098  -18.0388   17.9596 C   0  0  1  0  0  0  0  0  0  0  0  0
    9.4224  -19.3859   18.5522 C   0  0  0  0  0  0  0  0  0  0  0  0
   10.4387  -20.3158   17.9595 C   0  0  0  0  0  0  0  0  0  0  0  0
   10.3774  -21.7356   18.4341 C   0  0  0  0  0  0  0  0  0  0  0  0
   11.4832  -22.6047   17.8718 C   0  0  0  0  0  0  0  0  0  0  0  0
   11.4714  -23.8697   18.5452 N   0  0  0  0  0  0  0  0  0  0  0  0
   10.0050  -17.0036   18.9398 C   0  0  0  0  0  0  0  0  0  0  0  0
   11.1920  -16.6184   18.8740 O   0  0  0  0  0  0  0  0  0  0  0  0
    8.2573  -12.5394   19.4923 C   0  0  0  0  0  0  0  0  0  0  0  0
    7.6343  -13.7389   20.0731 C   0  0  2  0  0  0  0  0  0  0  0  0
    6.2920  -13.3098   20.7259 C   0  0  0  0  0  0  0  0  0  0  0  0
    8.3177  -14.5714   21.0473 C   0  0  0  0  0  0  0  0  0  0  0  0
    9.5559  -15.3104   20.7690 C   0  0  2  0  0  0  0  0  0  0  0  0
    9.1394  -16.4696   19.9268 N   0  0  0  0  0  0  0  0  0  0  0  0
   10.1592  -15.8975   21.9628 C   0  0  0  0  0  0  0  0  0  0  0  0
    9.4844  -16.4933   22.8326 O   0  0  0  0  0  0  0  0  0  0  0  0
   11.5650  -15.7995   22.1674 N   0  0  0  0  0  0  0  0  0  0  0  0
   12.1877  -16.4340   23.3321 C   0  0  0  0  0  0  0  0  0  0  0  0
   13.6502  -16.3838   23.3109 C   0  0  0  0  0  0  0  0  0  0  0  0
   14.3044  -17.4153   22.6230 O   0  0  0  0  0  0  0  0  0  0  0  0
   14.3813  -15.5273   23.8354 O   0  0  0  0  0  0  0  0  0  0  0  0
  2  8  1  0
  2  1  1  6
  3  2  1  0
  4  3  1  0
  5  4  1  0
  6  5  1  0
  7  6  1  0
  8  9  2  0
 11 12  1  1
 11 10  1  0
 13 11  1  0
 14 13  1  1
 15 14  1  0
 15  8  1  0
 16 14  1  0
 17 16  2  0
 18 16  1  0
 19 18  1  0
 20 19  1  0
 20 21  1  0
 22 20  2  0
M  END
$$$$
