KLG.pdb
     RDKit          3D

 22 21  0  0  1  0  0  0  0  0999 V2000
    8.7049  -16.2163   20.1810 N   0  0  0  0  0  0  0  0  0  0  0  0
    7.9568  -16.2742   21.3905 C   0  0  1  0  0  0  0  0  0  0  0  0
    7.6454  -17.6563   21.7983 C   0  0  0  0  0  0  0  0  0  0  0  0
    6.7862  -18.3500   20.7837 C   0  0  0  0  0  0  0  0  0  0  0  0
    6.3542  -19.7403   21.1376 C   0  0  0  0  0  0  0  0  0  0  0  0
    5.3834  -20.3392   20.1411 C   0  0  0  0  0  0  0  0  0  0  0  0
    5.0065  -21.6487   20.5849 N   0  0  0  0  0  0  0  0  0  0  0  0
    8.6486  -15.4891   22.4781 C   0  0  0  0  0  0  0  0  0  0  0  0
    9.8859  -15.3243   22.4199 O   0  0  0  0  0  0  0  0  0  0  0  0
    5.2841  -12.8882   26.1061 C   0  0  0  0  0  0  0  0  0  0  0  0
    6.7225  -13.1941   26.1448 C   0  0  2  0  0  0  0  0  0  0  0  0
    7.3716  -12.2950   27.2322 C   0  0  0  0  0  0  0  0  0  0  0  0
    7.5675  -13.0913   24.9681 C   0  0  0  0  0  0  0  0  0  0  0  0
    8.5720  -14.0937   24.5903 C   0  0  2  0  0  0  0  0  0  0  0  0
    7.9098  -14.9418   23.5566 N   0  0  0  0  0  0  0  0  0  0  0  0
    8.9144  -15.0070   25.6777 C   0  0  0  0  0  0  0  0  0  0  0  0
    9.4759  -14.6206   26.7277 O   0  0  0  0  0  0  0  0  0  0  0  0
    8.6094  -16.3931   25.5613 N   0  0  0  0  0  0  0  0  0  0  0  0
    8.9743  -17.3221   26.6340 C   0  0  0  0  0  0  0  0  0  0  0  0
   10.3860  -17.7080   26.6158 C   0  0  0  0  0  0  0  0  0  0  0  0
   11.2061  -17.1369   27.5989 O   0  0  0  0  0  0  0  0  0  0  0  0
   10.9427  -18.4875   25.8249 O   0  0  0  0  0  0  0  0  0  0  0  0
  2  8  1  0
  2  1  1  6
  3  2  1  0
  4  3  1  0
  5  4  1  0
  6  5  1  0
  7  6  1  0
  8  9  2  0
 11 12  1  1
 11 10  1  0
 13 11  1  0
 14 13  1  1
 15 14  1  0
 15  8  1  0
 16 14  1  0
 17 16  2  0
 18 16  1  0
 19 18  1  0
 20 19  1  0
 20 21  1  0
 22 20  2  0
M  END
$$$$
