KLG.pdb
     RDKit          3D

 22 21  0  0  1  0  0  0  0  0999 V2000
    7.0457  -15.7235   21.7673 N   0  0  0  0  0  0  0  0  0  0  0  0
    8.2609  -14.9892   21.6673 C   0  0  1  0  0  0  0  0  0  0  0  0
    8.1369  -13.8044   20.7986 C   0  0  0  0  0  0  0  0  0  0  0  0
    7.8043  -14.1881   19.3875 C   0  0  0  0  0  0  0  0  0  0  0  0
    8.5003  -13.4030   18.3179 C   0  0  0  0  0  0  0  0  0  0  0  0
    8.0056  -13.7207   16.9220 C   0  0  0  0  0  0  0  0  0  0  0  0
    8.5568  -12.7691   16.0031 N   0  0  0  0  0  0  0  0  0  0  0  0
    8.7884  -14.6506   23.0402 C   0  0  0  0  0  0  0  0  0  0  0  0
    9.8889  -14.0679   23.1452 O   0  0  0  0  0  0  0  0  0  0  0  0
    7.7612  -11.4873   26.0358 C   0  0  0  0  0  0  0  0  0  0  0  0
    6.9046  -12.6802   25.9512 C   0  0  2  0  0  0  0  0  0  0  0  0
    5.6807  -12.4547   26.8804 C   0  0  0  0  0  0  0  0  0  0  0  0
    7.4026  -14.0129   26.2433 C   0  0  0  0  0  0  0  0  0  0  0  0
    8.5490  -14.6271   25.5614 C   0  0  2  0  0  0  0  0  0  0  0  0
    8.0497  -14.9866   24.2021 N   0  0  0  0  0  0  0  0  0  0  0  0
    8.9714  -15.8891   26.1639 C   0  0  0  0  0  0  0  0  0  0  0  0
    9.2575  -15.9910   27.3783 O   0  0  0  0  0  0  0  0  0  0  0  0
    9.0705  -17.0599   25.3595 N   0  0  0  0  0  0  0  0  0  0  0  0
    9.5683  -18.3118   25.9359 C   0  0  0  0  0  0  0  0  0  0  0  0
   11.0271  -18.4263   25.9090 C   0  0  0  0  0  0  0  0  0  0  0  0
   11.5742  -19.6078   26.4288 O   0  0  0  0  0  0  0  0  0  0  0  0
   11.8395  -17.5922   25.4762 O   0  0  0  0  0  0  0  0  0  0  0  0
  2  8  1  0
  2  1  1  1
  3  2  1  0
  4  3  1  0
  5  4  1  0
  6  5  1  0
  7  6  1  0
  8  9  2  0
 11 12  1  1
 11 10  1  0
 13 11  1  0
 14 13  1  1
 15 14  1  0
 15  8  1  0
 16 14  1  0
 17 16  2  0
 18 16  1  0
 19 18  1  0
 20 19  1  0
 20 21  1  0
 22 20  2  0
M  END
$$$$
