KLG.pdb
     RDKit          3D

 22 21  0  0  1  0  0  0  0  0999 V2000
    7.1233  -15.7742   21.4442 N   0  0  0  0  0  0  0  0  0  0  0  0
    8.2339  -14.8899   21.3423 C   0  0  1  0  0  0  0  0  0  0  0  0
    7.9469  -13.7146   20.4998 C   0  0  0  0  0  0  0  0  0  0  0  0
    7.4763  -14.1174   19.1340 C   0  0  0  0  0  0  0  0  0  0  0  0
    8.2728  -13.5777   17.9855 C   0  0  0  0  0  0  0  0  0  0  0  0
    7.7445  -14.0095   16.6332 C   0  0  0  0  0  0  0  0  0  0  0  0
    8.6197  -13.5174   15.6107 N   0  0  0  0  0  0  0  0  0  0  0  0
    8.7368  -14.5126   22.7144 C   0  0  0  0  0  0  0  0  0  0  0  0
    9.7938  -13.8542   22.8180 O   0  0  0  0  0  0  0  0  0  0  0  0
    7.6948  -11.4971   26.1955 C   0  0  0  0  0  0  0  0  0  0  0  0
    6.8360  -12.6439   25.8617 C   0  0  2  0  0  0  0  0  0  0  0  0
    5.5692  -12.5670   26.7568 C   0  0  0  0  0  0  0  0  0  0  0  0
    7.3107  -14.0144   25.9378 C   0  0  0  0  0  0  0  0  0  0  0  0
    8.5021  -14.5093   25.2362 C   0  0  2  0  0  0  0  0  0  0  0  0
    8.0235  -14.8971   23.8772 N   0  0  0  0  0  0  0  0  0  0  0  0
    9.0481  -15.7333   25.8172 C   0  0  0  0  0  0  0  0  0  0  0  0
    9.3492  -15.8254   27.0287 O   0  0  0  0  0  0  0  0  0  0  0  0
    9.2559  -16.8767   24.9943 N   0  0  0  0  0  0  0  0  0  0  0  0
    9.8219  -18.1027   25.5630 C   0  0  0  0  0  0  0  0  0  0  0  0
   11.2705  -18.2127   25.3861 C   0  0  0  0  0  0  0  0  0  0  0  0
   11.8614  -19.4218   25.7789 O   0  0  0  0  0  0  0  0  0  0  0  0
   12.0397  -17.3529   24.9253 O   0  0  0  0  0  0  0  0  0  0  0  0
  2  8  1  0
  2  1  1  1
  3  2  1  0
  4  3  1  0
  5  4  1  0
  6  5  1  0
  7  6  1  0
  8  9  2  0
 11 12  1  1
 11 10  1  0
 13 11  1  0
 14 13  1  1
 15 14  1  0
 15  8  1  0
 16 14  1  0
 17 16  2  0
 18 16  1  0
 19 18  1  0
 20 19  1  0
 20 21  1  0
 22 20  2  0
M  END
$$$$
