KLG.pdb
     RDKit          3D

 22 21  0  0  1  0  0  0  0  0999 V2000
    9.3722  -19.3329   16.8144 N   0  0  0  0  0  0  0  0  0  0  0  0
    8.7495  -19.0488   18.0623 C   0  0  1  0  0  0  0  0  0  0  0  0
    8.7693  -20.2020   18.9807 C   0  0  0  0  0  0  0  0  0  0  0  0
    8.3875  -21.4714   18.2796 C   0  0  0  0  0  0  0  0  0  0  0  0
    8.3099  -22.6938   19.1426 C   0  0  0  0  0  0  0  0  0  0  0  0
    8.0261  -23.9615   18.3635 C   0  0  0  0  0  0  0  0  0  0  0  0
    7.8632  -25.0485   19.2831 N   0  0  0  0  0  0  0  0  0  0  0  0
    9.3426  -17.8051   18.6780 C   0  0  0  0  0  0  0  0  0  0  0  0
   10.4969  -17.4534   18.3533 O   0  0  0  0  0  0  0  0  0  0  0  0
    6.8381  -12.8538   21.3700 C   0  0  0  0  0  0  0  0  0  0  0  0
    8.0518  -13.5759   20.9581 C   0  0  2  0  0  0  0  0  0  0  0  0
    8.8571  -12.6497   20.0063 C   0  0  0  0  0  0  0  0  0  0  0  0
    7.9975  -14.8777   20.3165 C   0  0  0  0  0  0  0  0  0  0  0  0
    9.1550  -15.7702   20.1742 C   0  0  2  0  0  0  0  0  0  0  0  0
    8.6047  -17.0393   19.6149 N   0  0  0  0  0  0  0  0  0  0  0  0
    9.7592  -16.1410   21.4514 C   0  0  0  0  0  0  0  0  0  0  0  0
    9.1019  -16.6672   22.3777 O   0  0  0  0  0  0  0  0  0  0  0  0
   11.1452  -15.9031   21.6751 N   0  0  0  0  0  0  0  0  0  0  0  0
   11.7537  -16.2406   22.9646 C   0  0  0  0  0  0  0  0  0  0  0  0
   13.1691  -15.8791   23.0536 C   0  0  0  0  0  0  0  0  0  0  0  0
   13.7785  -16.0301   24.3071 O   0  0  0  0  0  0  0  0  0  0  0  0
   13.8954  -15.4517   22.1410 O   0  0  0  0  0  0  0  0  0  0  0  0
  2  8  1  0
  2  1  1  6
  3  2  1  0
  4  3  1  0
  5  4  1  0
  6  5  1  0
  7  6  1  0
  8  9  2  0
 11 12  1  6
 11 10  1  0
 13 11  1  0
 14 13  1  1
 15 14  1  0
 15  8  1  0
 16 14  1  0
 17 16  2  0
 18 16  1  0
 19 18  1  0
 20 19  1  0
 20 21  1  0
 22 20  2  0
M  END
$$$$
