KLG.pdb
     RDKit          3D

 22 21  0  0  1  0  0  0  0  0999 V2000
    7.1397  -15.6798   21.0134 N   0  0  0  0  0  0  0  0  0  0  0  0
    8.1408  -14.6792   20.8640 C   0  0  1  0  0  0  0  0  0  0  0  0
    7.7410  -13.6132   19.9272 C   0  0  0  0  0  0  0  0  0  0  0  0
    7.6467  -14.1230   18.5201 C   0  0  0  0  0  0  0  0  0  0  0  0
    8.7462  -13.6940   17.5970 C   0  0  0  0  0  0  0  0  0  0  0  0
    8.5244  -14.1200   16.1605 C   0  0  0  0  0  0  0  0  0  0  0  0
    7.5169  -13.2852   15.5758 N   0  0  0  0  0  0  0  0  0  0  0  0
    8.5572  -14.1425   22.2117 C   0  0  0  0  0  0  0  0  0  0  0  0
    9.5062  -13.3324   22.2801 O   0  0  0  0  0  0  0  0  0  0  0  0
    5.5960  -12.4285   27.1545 C   0  0  0  0  0  0  0  0  0  0  0  0
    6.8933  -12.7554   26.5428 C   0  0  2  0  0  0  0  0  0  0  0  0
    7.7039  -11.4371   26.4118 C   0  0  0  0  0  0  0  0  0  0  0  0
    6.9964  -13.4306   25.2611 C   0  0  0  0  0  0  0  0  0  0  0  0
    8.2482  -13.9752   24.7199 C   0  0  2  0  0  0  0  0  0  0  0  0
    7.8841  -14.5481   23.3912 N   0  0  0  0  0  0  0  0  0  0  0  0
    8.7723  -15.0977   25.4940 C   0  0  0  0  0  0  0  0  0  0  0  0
    9.1081  -14.9869   26.6948 O   0  0  0  0  0  0  0  0  0  0  0  0
    8.9171  -16.3748   24.8809 N   0  0  0  0  0  0  0  0  0  0  0  0
    9.3792  -17.5226   25.6658 C   0  0  0  0  0  0  0  0  0  0  0  0
   10.8294  -17.7143   25.6198 C   0  0  0  0  0  0  0  0  0  0  0  0
   11.3370  -18.8328   26.2955 O   0  0  0  0  0  0  0  0  0  0  0  0
   11.6656  -16.9956   25.0477 O   0  0  0  0  0  0  0  0  0  0  0  0
  2  8  1  0
  2  1  1  1
  3  2  1  0
  4  3  1  0
  5  4  1  0
  6  5  1  0
  7  6  1  0
  8  9  2  0
 11 12  1  6
 11 10  1  0
 13 11  1  0
 14 13  1  1
 15 14  1  0
 15  8  1  0
 16 14  1  0
 17 16  2  0
 18 16  1  0
 19 18  1  0
 20 19  1  0
 20 21  1  0
 22 20  2  0
M  END
$$$$
