KLG.pdb
     RDKit          3D

 22 21  0  0  1  0  0  0  0  0999 V2000
    8.0471  -15.2741   20.3613 N   0  0  0  0  0  0  0  0  0  0  0  0
    7.6351  -15.7849   21.6243 C   0  0  1  0  0  0  0  0  0  0  0  0
    7.7466  -17.2528   21.7053 C   0  0  0  0  0  0  0  0  0  0  0  0
    7.0085  -17.9242   20.5858 C   0  0  0  0  0  0  0  0  0  0  0  0
    6.9852  -19.4217   20.6270 C   0  0  0  0  0  0  0  0  0  0  0  0
    6.2307  -20.0424   19.4694 C   0  0  0  0  0  0  0  0  0  0  0  0
    6.2727  -21.4693   19.5957 N   0  0  0  0  0  0  0  0  0  0  0  0
    8.3672  -15.0838   22.7424 C   0  0  0  0  0  0  0  0  0  0  0  0
    9.4991  -14.6016   22.5235 O   0  0  0  0  0  0  0  0  0  0  0  0
    7.4105  -11.1336   25.6387 C   0  0  0  0  0  0  0  0  0  0  0  0
    6.6797  -12.4078   25.7180 C   0  0  2  0  0  0  0  0  0  0  0  0
    5.6085  -12.2739   26.8346 C   0  0  0  0  0  0  0  0  0  0  0  0
    7.3540  -13.6739   25.9447 C   0  0  0  0  0  0  0  0  0  0  0  0
    8.4486  -14.1811   25.1073 C   0  0  2  0  0  0  0  0  0  0  0  0
    7.7840  -14.9696   24.0290 N   0  0  0  0  0  0  0  0  0  0  0  0
    9.3153  -15.1301   25.8016 C   0  0  0  0  0  0  0  0  0  0  0  0
   10.0335  -14.7984   26.7717 O   0  0  0  0  0  0  0  0  0  0  0  0
    9.3629  -16.4882   25.3761 N   0  0  0  0  0  0  0  0  0  0  0  0
   10.3389  -17.4115   25.9610 C   0  0  0  0  0  0  0  0  0  0  0  0
    9.9101  -17.9798   27.2397 C   0  0  0  0  0  0  0  0  0  0  0  0
   10.8209  -18.8252   27.8885 O   0  0  0  0  0  0  0  0  0  0  0  0
    8.8260  -17.7975   27.8184 O   0  0  0  0  0  0  0  0  0  0  0  0
  2  8  1  0
  2  1  1  6
  3  2  1  0
  4  3  1  0
  5  4  1  0
  6  5  1  0
  7  6  1  0
  8  9  2  0
 11 12  1  1
 11 10  1  0
 13 11  1  0
 14 13  1  1
 15 14  1  0
 15  8  1  0
 16 14  1  0
 17 16  2  0
 18 16  1  0
 19 18  1  0
 20 19  1  0
 20 21  1  0
 22 20  2  0
M  END
$$$$
