WEL.pdb
     RDKit          3D

 32 33  0  0  1  0  0  0  0  0999 V2000
   17.3221  -11.0123  -15.5598 N   0  0  0  0  0  0  0  0  0  0  0  0
   18.1171  -10.3709  -16.5739 C   0  0  1  0  0  0  0  0  0  0  0  0
   17.2555   -9.3836  -17.3223 C   0  0  0  0  0  0  0  0  0  0  0  0
   16.2828  -10.0483  -18.2149 C   0  0  0  0  0  0  0  0  0  0  0  0
   16.2602  -11.4226  -18.4879 C   0  0  0  0  0  0  0  0  0  0  0  0
   15.2398  -11.7129  -19.3129 N   0  0  0  0  0  0  0  0  0  0  0  0
   14.5868  -10.5796  -19.5957 C   0  0  0  0  0  0  0  0  0  0  0  0
   13.4840  -10.3656  -20.3972 C   0  0  0  0  0  0  0  0  0  0  0  0
   13.0050   -9.0784  -20.5293 C   0  0  0  0  0  0  0  0  0  0  0  0
   13.6299   -8.0371  -19.8655 C   0  0  0  0  0  0  0  0  0  0  0  0
   14.7334   -8.2830  -19.0693 C   0  0  0  0  0  0  0  0  0  0  0  0
   15.2244   -9.5422  -18.9216 C   0  0  0  0  0  0  0  0  0  0  0  0
   19.2504   -9.6794  -15.8922 C   0  0  0  0  0  0  0  0  0  0  0  0
   19.0921   -9.1272  -14.7765 O   0  0  0  0  0  0  0  0  0  0  0  0
   20.5638   -9.6199  -16.4873 N   0  0  0  0  0  0  0  0  0  0  0  0
   21.6522   -8.9817  -15.8172 C   0  0  1  0  0  0  0  0  0  0  0  0
   23.0161   -9.4478  -16.1405 C   0  0  0  0  0  0  0  0  0  0  0  0
   24.1786   -8.8872  -15.4401 C   0  0  0  0  0  0  0  0  0  0  0  0
   25.4980   -9.4372  -15.7067 C   0  0  0  0  0  0  0  0  0  0  0  0
   25.9776  -10.3629  -15.0052 O   0  0  0  0  0  0  0  0  0  0  0  0
   21.5249   -7.4870  -15.8554 C   0  0  0  0  0  0  0  0  0  0  0  0
   21.5644   -6.8501  -16.9390 O   0  0  0  0  0  0  0  0  0  0  0  0
   26.3210   -8.9789  -16.7545 O   0  0  0  0  0  0  0  0  0  0  0  0
   17.5082   -4.5210  -15.0080 C   0  0  0  0  0  0  0  0  0  0  0  0
   18.9079   -4.7844  -15.4631 C   0  0  1  0  0  0  0  0  0  0  0  0
   19.3012   -3.8502  -16.6065 C   0  0  0  0  0  0  0  0  0  0  0  0
   19.9310   -4.8789  -14.4172 C   0  0  0  0  0  0  0  0  0  0  0  0
   21.3284   -5.2261  -14.7159 C   0  0  2  0  0  0  0  0  0  0  0  0
   21.3545   -6.7291  -14.6689 N   0  0  0  0  0  0  0  0  0  0  0  0
   22.4029   -4.7540  -13.8790 C   0  0  0  0  0  0  0  0  0  0  0  0
   22.6702   -3.5025  -13.7980 O   0  0  0  0  0  0  0  0  0  0  0  0
   23.2076   -5.5646  -13.1136 O   0  0  0  0  0  0  0  0  0  0  0  0
  2  1  1  1
  2 13  1  0
  3  2  1  0
  4  3  1  0
  5  4  2  0
  6  5  1  0
  7  6  1  0
  7 12  2  0
  8  7  1  0
  9  8  2  0
  9 10  1  0
 10 11  2  0
 11 12  1  0
 12  4  1  0
 13 14  2  0
 15 13  1  0
 15 16  1  0
 16 17  1  6
 18 17  1  0
 19 23  1  0
 19 18  1  0
 20 19  2  0
 21 16  1  0
 21 22  2  0
 25 24  1  1
 25 27  1  0
 25 26  1  0
 28 27  1  1
 28 29  1  0
 29 21  1  0
 30 28  1  0
 31 30  2  0
 32 30  1  0
M  END
$$$$
