WEL.pdb
     RDKit          3D

 32 33  0  0  1  0  0  0  0  0999 V2000
   24.6690  -11.9606  -18.6853 N   0  0  0  0  0  0  0  0  0  0  0  0
   24.5020  -11.4938  -17.3340 C   0  0  1  0  0  0  0  0  0  0  0  0
   25.7938  -10.8691  -16.8669 C   0  0  0  0  0  0  0  0  0  0  0  0
   26.8825  -11.8598  -16.7333 C   0  0  0  0  0  0  0  0  0  0  0  0
   28.1937  -11.6710  -17.1904 C   0  0  0  0  0  0  0  0  0  0  0  0
   28.9457  -12.7443  -16.8928 N   0  0  0  0  0  0  0  0  0  0  0  0
   28.1787  -13.6366  -16.2556 C   0  0  0  0  0  0  0  0  0  0  0  0
   28.4931  -14.8854  -15.7596 C   0  0  0  0  0  0  0  0  0  0  0  0
   27.5003  -15.6189  -15.1428 C   0  0  0  0  0  0  0  0  0  0  0  0
   26.2229  -15.0976  -15.0336 C   0  0  0  0  0  0  0  0  0  0  0  0
   25.9384  -13.8430  -15.5406 C   0  0  0  0  0  0  0  0  0  0  0  0
   26.8988  -13.0997  -16.1517 C   0  0  0  0  0  0  0  0  0  0  0  0
   23.3952  -10.4926  -17.3333 C   0  0  0  0  0  0  0  0  0  0  0  0
   23.3069   -9.6276  -18.2382 O   0  0  0  0  0  0  0  0  0  0  0  0
   22.3905  -10.4815  -16.2973 N   0  0  0  0  0  0  0  0  0  0  0  0
   21.3068   -9.5512  -16.3269 C   0  0  1  0  0  0  0  0  0  0  0  0
   19.9490  -10.0823  -16.0896 C   0  0  0  0  0  0  0  0  0  0  0  0
   19.5739  -11.4124  -16.5859 C   0  0  0  0  0  0  0  0  0  0  0  0
   19.3735  -12.4924  -15.6332 C   0  0  0  0  0  0  0  0  0  0  0  0
   18.2610  -13.0643  -15.5132 O   0  0  0  0  0  0  0  0  0  0  0  0
   21.6040   -8.3298  -15.5073 C   0  0  0  0  0  0  0  0  0  0  0  0
   22.1675   -8.4102  -14.3859 O   0  0  0  0  0  0  0  0  0  0  0  0
   20.3963  -12.9680  -14.7888 O   0  0  0  0  0  0  0  0  0  0  0  0
   21.4768   -2.5051  -15.2860 C   0  0  0  0  0  0  0  0  0  0  0  0
   22.5438   -3.5200  -15.5454 C   0  0  1  0  0  0  0  0  0  0  0  0
   23.5306   -3.5926  -14.3810 C   0  0  0  0  0  0  0  0  0  0  0  0
   22.0974   -4.8381  -16.0066 C   0  0  0  0  0  0  0  0  0  0  0  0
   21.4982   -5.8261  -15.0969 C   0  0  2  0  0  0  0  0  0  0  0  0
   21.2613   -7.0317  -15.9642 N   0  0  0  0  0  0  0  0  0  0  0  0
   20.2627   -5.5448  -14.4097 C   0  0  0  0  0  0  0  0  0  0  0  0
   19.1334   -5.8233  -14.9495 O   0  0  0  0  0  0  0  0  0  0  0  0
   20.1785   -4.9802  -13.1588 O   0  0  0  0  0  0  0  0  0  0  0  0
  2  1  1  6
  2 13  1  0
  3  2  1  0
  4  3  1  0
  5  4  2  0
  6  5  1  0
  7  6  1  0
  7 12  2  0
  8  7  1  0
  9  8  2  0
  9 10  1  0
 10 11  2  0
 11 12  1  0
 12  4  1  0
 13 14  2  0
 15 13  1  0
 15 16  1  0
 16 17  1  1
 18 17  1  0
 19 23  1  0
 19 18  1  0
 20 19  2  0
 21 16  1  0
 21 22  2  0
 25 24  1  1
 25 27  1  0
 25 26  1  0
 28 27  1  6
 28 29  1  0
 29 21  1  0
 30 28  1  0
 31 30  2  0
 32 30  1  0
M  END
$$$$
