WEL.pdb
     RDKit          3D

 32 33  0  0  1  0  0  0  0  0999 V2000
   24.4503  -20.7456   -9.1950 N   0  0  0  0  0  0  0  0  0  0  0  0
   23.8946  -21.3503   -8.0128 C   0  0  1  0  0  0  0  0  0  0  0  0
   24.0342  -20.3896   -6.8575 C   0  0  0  0  0  0  0  0  0  0  0  0
   25.4317  -19.9534   -6.6535 C   0  0  0  0  0  0  0  0  0  0  0  0
   26.0861  -18.9850   -7.4265 C   0  0  0  0  0  0  0  0  0  0  0  0
   27.3360  -18.7970   -6.9701 N   0  0  0  0  0  0  0  0  0  0  0  0
   27.5320  -19.6068   -5.9230 C   0  0  0  0  0  0  0  0  0  0  0  0
   28.6478  -19.7797   -5.1297 C   0  0  0  0  0  0  0  0  0  0  0  0
   28.5907  -20.6998   -4.1030 C   0  0  0  0  0  0  0  0  0  0  0  0
   27.4314  -21.4248   -3.8888 C   0  0  0  0  0  0  0  0  0  0  0  0
   26.3293  -21.2293   -4.7008 C   0  0  0  0  0  0  0  0  0  0  0  0
   26.3594  -20.3281   -5.7182 C   0  0  0  0  0  0  0  0  0  0  0  0
   22.4583  -21.6479   -8.2878 C   0  0  0  0  0  0  0  0  0  0  0  0
   21.6200  -20.7224   -8.4131 O   0  0  0  0  0  0  0  0  0  0  0  0
   21.9818  -23.0038   -8.4188 N   0  0  0  0  0  0  0  0  0  0  0  0
   20.6033  -23.2833   -8.6690 C   0  0  1  0  0  0  0  0  0  0  0  0
   20.2656  -23.9484   -9.9440 C   0  0  0  0  0  0  0  0  0  0  0  0
   18.8653  -24.2198  -10.2928 C   0  0  0  0  0  0  0  0  0  0  0  0
   17.9641  -23.1019  -10.5222 C   0  0  0  0  0  0  0  0  0  0  0  0
   18.3280  -22.0868  -11.1674 O   0  0  0  0  0  0  0  0  0  0  0  0
   19.9465  -23.9301   -7.4849 C   0  0  0  0  0  0  0  0  0  0  0  0
   20.6022  -24.2471   -6.4597 O   0  0  0  0  0  0  0  0  0  0  0  0
   16.6386  -23.0767  -10.0451 O   0  0  0  0  0  0  0  0  0  0  0  0
   18.1712  -25.4214   -3.0320 C   0  0  0  0  0  0  0  0  0  0  0  0
   17.2928  -24.6402   -3.9559 C   0  0  1  0  0  0  0  0  0  0  0  0
   16.5729  -23.5155   -3.2130 C   0  0  0  0  0  0  0  0  0  0  0  0
   17.8934  -24.2046   -5.2204 C   0  0  0  0  0  0  0  0  0  0  0  0
   17.9590  -25.0799   -6.4003 C   0  0  2  0  0  0  0  0  0  0  0  0
   18.5565  -24.2112   -7.4727 N   0  0  0  0  0  0  0  0  0  0  0  0
   16.7653  -25.6741   -6.9477 C   0  0  0  0  0  0  0  0  0  0  0  0
   16.3918  -26.8469   -6.5883 O   0  0  0  0  0  0  0  0  0  0  0  0
   15.9422  -25.0644   -7.8650 O   0  0  0  0  0  0  0  0  0  0  0  0
  2  1  1  6
  2 13  1  0
  3  2  1  0
  4  3  1  0
  5  4  2  0
  6  5  1  0
  7  6  1  0
  7 12  2  0
  8  7  1  0
  9  8  2  0
  9 10  1  0
 10 11  2  0
 11 12  1  0
 12  4  1  0
 13 14  2  0
 15 13  1  0
 15 16  1  0
 16 17  1  6
 18 17  1  0
 19 23  1  0
 19 18  1  0
 20 19  2  0
 21 16  1  0
 21 22  2  0
 25 24  1  1
 25 27  1  0
 25 26  1  0
 28 27  1  1
 28 29  1  0
 29 21  1  0
 30 28  1  0
 31 30  2  0
 32 30  1  0
M  END
$$$$
