WEL.pdb
     RDKit          3D

 32 33  0  0  1  0  0  0  0  0999 V2000
   23.5177  -13.4930  -18.1371 N   0  0  0  0  0  0  0  0  0  0  0  0
   22.8192  -13.1891  -16.9157 C   0  0  1  0  0  0  0  0  0  0  0  0
   23.8262  -12.9995  -15.8079 C   0  0  0  0  0  0  0  0  0  0  0  0
   24.5293  -14.2536  -15.4652 C   0  0  0  0  0  0  0  0  0  0  0  0
   25.8598  -14.3296  -15.0319 C   0  0  0  0  0  0  0  0  0  0  0  0
   26.1903  -15.6071  -14.7771 N   0  0  0  0  0  0  0  0  0  0  0  0
   25.1262  -16.3789  -15.0269 C   0  0  0  0  0  0  0  0  0  0  0  0
   24.9759  -17.7467  -14.9218 C   0  0  0  0  0  0  0  0  0  0  0  0
   23.7579  -18.3036  -15.2537 C   0  0  0  0  0  0  0  0  0  0  0  0
   22.7210  -17.4926  -15.6812 C   0  0  0  0  0  0  0  0  0  0  0  0
   22.9020  -16.1250  -15.7762 C   0  0  0  0  0  0  0  0  0  0  0  0
   24.0918  -15.5514  -15.4542 C   0  0  0  0  0  0  0  0  0  0  0  0
   22.0335  -11.9404  -17.1411 C   0  0  0  0  0  0  0  0  0  0  0  0
   22.5694  -10.9225  -17.6426 O   0  0  0  0  0  0  0  0  0  0  0  0
   20.6356  -11.8570  -16.7923 N   0  0  0  0  0  0  0  0  0  0  0  0
   19.8956  -10.6500  -16.9833 C   0  0  1  0  0  0  0  0  0  0  0  0
   18.4219  -10.7506  -16.9892 C   0  0  0  0  0  0  0  0  0  0  0  0
   17.7465  -11.8153  -16.2365 C   0  0  0  0  0  0  0  0  0  0  0  0
   16.7026  -11.4590  -15.2892 C   0  0  0  0  0  0  0  0  0  0  0  0
   15.8348  -10.5925  -15.5635 O   0  0  0  0  0  0  0  0  0  0  0  0
   20.3989   -9.5471  -16.0989 C   0  0  0  0  0  0  0  0  0  0  0  0
   20.9939   -9.7892  -15.0179 O   0  0  0  0  0  0  0  0  0  0  0  0
   16.5904  -12.0503  -14.0152 O   0  0  0  0  0  0  0  0  0  0  0  0
   24.2675   -5.5375  -16.3635 C   0  0  0  0  0  0  0  0  0  0  0  0
   22.9572   -5.7192  -15.6665 C   0  0  1  0  0  0  0  0  0  0  0  0
   22.2873   -4.3736  -15.3919 C   0  0  0  0  0  0  0  0  0  0  0  0
   22.0430   -6.7133  -16.2368 C   0  0  0  0  0  0  0  0  0  0  0  0
   20.7849   -7.0922  -15.5763 C   0  0  2  0  0  0  0  0  0  0  0  0
   20.2241   -8.1832  -16.4463 N   0  0  0  0  0  0  0  0  0  0  0  0
   19.7353   -6.1251  -15.3741 C   0  0  0  0  0  0  0  0  0  0  0  0
   19.6173   -5.5087  -14.2559 O   0  0  0  0  0  0  0  0  0  0  0  0
   18.8017   -5.7795  -16.3225 O   0  0  0  0  0  0  0  0  0  0  0  0
  2  1  1  6
  2 13  1  0
  3  2  1  0
  4  3  1  0
  5  4  2  0
  6  5  1  0
  7  6  1  0
  7 12  2  0
  8  7  1  0
  9  8  2  0
  9 10  1  0
 10 11  2  0
 11 12  1  0
 12  4  1  0
 13 14  2  0
 15 13  1  0
 15 16  1  0
 16 17  1  1
 18 17  1  0
 19 23  1  0
 19 18  1  0
 20 19  2  0
 21 16  1  0
 21 22  2  0
 25 24  1  6
 25 27  1  0
 25 26  1  0
 28 27  1  6
 28 29  1  0
 29 21  1  0
 30 28  1  0
 31 30  2  0
 32 30  1  0
M  END
$$$$
