WEL.pdb
     RDKit          3D

 32 33  0  0  1  0  0  0  0  0999 V2000
   24.3282  -18.1445  -17.9854 N   0  0  0  0  0  0  0  0  0  0  0  0
   24.2020  -17.7246  -16.6144 C   0  0  1  0  0  0  0  0  0  0  0  0
   23.3154  -16.5050  -16.5537 C   0  0  0  0  0  0  0  0  0  0  0  0
   23.9697  -15.3045  -17.1154 C   0  0  0  0  0  0  0  0  0  0  0  0
   23.4440  -14.5201  -18.1508 C   0  0  0  0  0  0  0  0  0  0  0  0
   24.2649  -13.4884  -18.4111 N   0  0  0  0  0  0  0  0  0  0  0  0
   25.3151  -13.5625  -17.5851 C   0  0  0  0  0  0  0  0  0  0  0  0
   26.4184  -12.7411  -17.4743 C   0  0  0  0  0  0  0  0  0  0  0  0
   27.3775  -13.0490  -16.5314 C   0  0  0  0  0  0  0  0  0  0  0  0
   27.2199  -14.1616  -15.7234 C   0  0  0  0  0  0  0  0  0  0  0  0
   26.1031  -14.9658  -15.8581 C   0  0  0  0  0  0  0  0  0  0  0  0
   25.1432  -14.6837  -16.7786 C   0  0  0  0  0  0  0  0  0  0  0  0
   23.6048  -18.8562  -15.8463 C   0  0  0  0  0  0  0  0  0  0  0  0
   22.8058  -19.6557  -16.3916 O   0  0  0  0  0  0  0  0  0  0  0  0
   23.9217  -19.0724  -14.4551 N   0  0  0  0  0  0  0  0  0  0  0  0
   23.4096  -20.2019  -13.7459 C   0  0  1  0  0  0  0  0  0  0  0  0
   24.3242  -20.8886  -12.8109 C   0  0  0  0  0  0  0  0  0  0  0  0
   25.7620  -20.9647  -13.0990 C   0  0  0  0  0  0  0  0  0  0  0  0
   26.6395  -21.6295  -12.1491 C   0  0  0  0  0  0  0  0  0  0  0  0
   26.2113  -22.0577  -11.0480 O   0  0  0  0  0  0  0  0  0  0  0  0
   22.0685  -19.9116  -13.1384 C   0  0  0  0  0  0  0  0  0  0  0  0
   21.7938  -18.7828  -12.6570 O   0  0  0  0  0  0  0  0  0  0  0  0
   28.0118  -21.8382  -12.3909 O   0  0  0  0  0  0  0  0  0  0  0  0
   17.6453  -19.4535  -16.0873 C   0  0  0  0  0  0  0  0  0  0  0  0
   18.2767  -19.0360  -14.7978 C   0  0  1  0  0  0  0  0  0  0  0  0
   17.2428  -18.9651  -13.6749 C   0  0  0  0  0  0  0  0  0  0  0  0
   19.5029  -19.7398  -14.4097 C   0  0  0  0  0  0  0  0  0  0  0  0
   19.6018  -20.5145  -13.1636 C   0  0  2  0  0  0  0  0  0  0  0  0
   21.0531  -20.9002  -13.0819 N   0  0  0  0  0  0  0  0  0  0  0  0
   18.8292  -21.7170  -12.9771 C   0  0  0  0  0  0  0  0  0  0  0  0
   19.1985  -22.8236  -13.5092 O   0  0  0  0  0  0  0  0  0  0  0  0
   17.6732  -21.7927  -12.2364 O   0  0  0  0  0  0  0  0  0  0  0  0
  2  1  1  6
  2 13  1  0
  3  2  1  0
  4  3  1  0
  5  4  2  0
  6  5  1  0
  7  6  1  0
  7 12  2  0
  8  7  1  0
  9  8  2  0
  9 10  1  0
 10 11  2  0
 11 12  1  0
 12  4  1  0
 13 14  2  0
 15 13  1  0
 15 16  1  0
 16 17  1  1
 18 17  1  0
 19 23  1  0
 19 18  1  0
 20 19  2  0
 21 16  1  0
 21 22  2  0
 25 24  1  6
 25 27  1  0
 25 26  1  0
 28 27  1  6
 28 29  1  0
 29 21  1  0
 30 28  1  0
 31 30  2  0
 32 30  1  0
M  END
$$$$
