WEL.pdb
     RDKit          3D

 32 33  0  0  1  0  0  0  0  0999 V2000
   27.6968  -20.4328  -15.2147 N   0  0  0  0  0  0  0  0  0  0  0  0
   26.8629  -20.9907  -14.1825 C   0  0  1  0  0  0  0  0  0  0  0  0
   26.9516  -20.1185  -12.9542 C   0  0  0  0  0  0  0  0  0  0  0  0
   28.3288  -20.0295  -12.4250 C   0  0  0  0  0  0  0  0  0  0  0  0
   29.1207  -18.8737  -12.4520 C   0  0  0  0  0  0  0  0  0  0  0  0
   30.3080  -19.1135  -11.8698 N   0  0  0  0  0  0  0  0  0  0  0  0
   30.3299  -20.3868  -11.4590 C   0  0  0  0  0  0  0  0  0  0  0  0
   31.3244  -21.0969  -10.8178 C   0  0  0  0  0  0  0  0  0  0  0  0
   31.0934  -22.4213  -10.5072 C   0  0  0  0  0  0  0  0  0  0  0  0
   29.8848  -23.0082  -10.8396 C   0  0  0  0  0  0  0  0  0  0  0  0
   28.9073  -22.2706  -11.4819 C   0  0  0  0  0  0  0  0  0  0  0  0
   29.1096  -20.9639  -11.7981 C   0  0  0  0  0  0  0  0  0  0  0  0
   25.4652  -21.0366  -14.7037 C   0  0  0  0  0  0  0  0  0  0  0  0
   24.8293  -19.9806  -14.9390 O   0  0  0  0  0  0  0  0  0  0  0  0
   24.7959  -22.2903  -14.9549 N   0  0  0  0  0  0  0  0  0  0  0  0
   23.3962  -22.3389  -15.2366 C   0  0  1  0  0  0  0  0  0  0  0  0
   22.9170  -23.4279  -16.1121 C   0  0  0  0  0  0  0  0  0  0  0  0
   21.5076  -23.4881  -16.5198 C   0  0  0  0  0  0  0  0  0  0  0  0
   21.0652  -24.5757  -17.3775 C   0  0  0  0  0  0  0  0  0  0  0  0
   21.8429  -25.5028  -17.7162 O   0  0  0  0  0  0  0  0  0  0  0  0
   22.5758  -22.1935  -13.9885 C   0  0  0  0  0  0  0  0  0  0  0  0
   22.9437  -22.6962  -12.8961 O   0  0  0  0  0  0  0  0  0  0  0  0
   19.7532  -24.6670  -17.8829 O   0  0  0  0  0  0  0  0  0  0  0  0
   21.2379  -18.2403  -10.4004 C   0  0  0  0  0  0  0  0  0  0  0  0
   20.6817  -19.5611  -10.8271 C   0  0  1  0  0  0  0  0  0  0  0  0
   19.1730  -19.6256  -10.5935 C   0  0  0  0  0  0  0  0  0  0  0  0
   21.0817  -20.0442  -12.1522 C   0  0  0  0  0  0  0  0  0  0  0  0
   20.5670  -21.3004  -12.7175 C   0  0  2  0  0  0  0  0  0  0  0  0
   21.3490  -21.4819  -13.9892 N   0  0  0  0  0  0  0  0  0  0  0  0
   19.1718  -21.4450  -13.0498 C   0  0  0  0  0  0  0  0  0  0  0  0
   18.7232  -21.0513  -14.1846 O   0  0  0  0  0  0  0  0  0  0  0  0
   18.2272  -22.0014  -12.2197 O   0  0  0  0  0  0  0  0  0  0  0  0
  2  1  1  6
  2 13  1  0
  3  2  1  0
  4  3  1  0
  5  4  2  0
  6  5  1  0
  7  6  1  0
  7 12  2  0
  8  7  1  0
  9  8  2  0
  9 10  1  0
 10 11  2  0
 11 12  1  0
 12  4  1  0
 13 14  2  0
 15 13  1  0
 15 16  1  0
 16 17  1  1
 18 17  1  0
 19 23  1  0
 19 18  1  0
 20 19  2  0
 21 16  1  0
 21 22  2  0
 25 24  1  6
 25 27  1  0
 25 26  1  0
 28 27  1  6
 28 29  1  0
 29 21  1  0
 30 28  1  0
 31 30  2  0
 32 30  1  0
M  END
$$$$
