WEL.pdb
     RDKit          3D

 32 33  0  0  1  0  0  0  0  0999 V2000
   26.3164  -22.8895  -13.1848 N   0  0  0  0  0  0  0  0  0  0  0  0
   25.5338  -21.8545  -12.5618 C   0  0  1  0  0  0  0  0  0  0  0  0
   26.3682  -20.6012  -12.4606 C   0  0  0  0  0  0  0  0  0  0  0  0
   27.4073  -20.6994  -11.4140 C   0  0  0  0  0  0  0  0  0  0  0  0
   28.7865  -20.7322  -11.6598 C   0  0  0  0  0  0  0  0  0  0  0  0
   29.4610  -20.7969  -10.4992 N   0  0  0  0  0  0  0  0  0  0  0  0
   28.5772  -20.8084   -9.4946 C   0  0  0  0  0  0  0  0  0  0  0  0
   28.7820  -20.8729   -8.1313 C   0  0  0  0  0  0  0  0  0  0  0  0
   27.6816  -20.8787   -7.2989 C   0  0  0  0  0  0  0  0  0  0  0  0
   26.4078  -20.8212   -7.8372 C   0  0  0  0  0  0  0  0  0  0  0  0
   26.2346  -20.7573   -9.2076 C   0  0  0  0  0  0  0  0  0  0  0  0
   27.3022  -20.7490  -10.0494 C   0  0  0  0  0  0  0  0  0  0  0  0
   24.3277  -21.6246  -13.4102 C   0  0  0  0  0  0  0  0  0  0  0  0
   24.3847  -21.7430  -14.6583 O   0  0  0  0  0  0  0  0  0  0  0  0
   23.0576  -21.2592  -12.8306 N   0  0  0  0  0  0  0  0  0  0  0  0
   21.8537  -21.3017  -13.5983 C   0  0  1  0  0  0  0  0  0  0  0  0
   20.7668  -22.1746  -13.1094 C   0  0  0  0  0  0  0  0  0  0  0  0
   19.8632  -22.8384  -14.0576 C   0  0  0  0  0  0  0  0  0  0  0  0
   18.9197  -22.0340  -14.8171 C   0  0  0  0  0  0  0  0  0  0  0  0
   19.2233  -21.5459  -15.9345 O   0  0  0  0  0  0  0  0  0  0  0  0
   21.3764  -19.9244  -13.9550 C   0  0  0  0  0  0  0  0  0  0  0  0
   21.3054  -19.0089  -13.0959 O   0  0  0  0  0  0  0  0  0  0  0  0
   17.6173  -21.7480  -14.3619 O   0  0  0  0  0  0  0  0  0  0  0  0
   22.5854  -17.1315  -18.6168 C   0  0  0  0  0  0  0  0  0  0  0  0
   22.1933  -17.3328  -17.1881 C   0  0  1  0  0  0  0  0  0  0  0  0
   22.4192  -16.0622  -16.3698 C   0  0  0  0  0  0  0  0  0  0  0  0
   20.8850  -17.9492  -16.9474 C   0  0  0  0  0  0  0  0  0  0  0  0
   20.3966  -18.2498  -15.5933 C   0  0  2  0  0  0  0  0  0  0  0  0
   20.9850  -19.5975  -15.2784 N   0  0  0  0  0  0  0  0  0  0  0  0
   18.9840  -18.3253  -15.3164 C   0  0  0  0  0  0  0  0  0  0  0  0
   18.3589  -19.4422  -15.3933 O   0  0  0  0  0  0  0  0  0  0  0  0
   18.2035  -17.2534  -14.9522 O   0  0  0  0  0  0  0  0  0  0  0  0
  2  1  1  6
  2 13  1  0
  3  2  1  0
  4  3  1  0
  5  4  2  0
  6  5  1  0
  7  6  1  0
  7 12  2  0
  8  7  1  0
  9  8  2  0
  9 10  1  0
 10 11  2  0
 11 12  1  0
 12  4  1  0
 13 14  2  0
 15 13  1  0
 15 16  1  0
 16 17  1  1
 18 17  1  0
 19 23  1  0
 19 18  1  0
 20 19  2  0
 21 16  1  0
 21 22  2  0
 25 24  1  6
 25 27  1  0
 25 26  1  0
 28 27  1  6
 28 29  1  0
 29 21  1  0
 30 28  1  0
 31 30  2  0
 32 30  1  0
M  END
$$$$
