WEL.pdb
     RDKit          3D

 32 33  0  0  1  0  0  0  0  0999 V2000
   21.4771  -17.6027  -16.8900 N   0  0  0  0  0  0  0  0  0  0  0  0
   22.8468  -17.2269  -16.6564 C   0  0  1  0  0  0  0  0  0  0  0  0
   22.8759  -15.9571  -15.8415 C   0  0  0  0  0  0  0  0  0  0  0  0
   22.2895  -14.8097  -16.5657 C   0  0  0  0  0  0  0  0  0  0  0  0
   21.0595  -14.2145  -16.2549 C   0  0  0  0  0  0  0  0  0  0  0  0
   20.8250  -13.1806  -17.0809 N   0  0  0  0  0  0  0  0  0  0  0  0
   21.8556  -13.0710  -17.9272 C   0  0  0  0  0  0  0  0  0  0  0  0
   22.0710  -12.1746  -18.9541 C   0  0  0  0  0  0  0  0  0  0  0  0
   23.2309  -12.2851  -19.6932 C   0  0  0  0  0  0  0  0  0  0  0  0
   24.1467  -13.2797  -19.3971 C   0  0  0  0  0  0  0  0  0  0  0  0
   23.9028  -14.1633  -18.3617 C   0  0  0  0  0  0  0  0  0  0  0  0
   22.7684  -14.0752  -17.6177 C   0  0  0  0  0  0  0  0  0  0  0  0
   23.5055  -18.3466  -15.9218 C   0  0  0  0  0  0  0  0  0  0  0  0
   22.9301  -18.9162  -14.9629 O   0  0  0  0  0  0  0  0  0  0  0  0
   24.8220  -18.8138  -16.2843 N   0  0  0  0  0  0  0  0  0  0  0  0
   25.4287  -19.9162  -15.6079 C   0  0  1  0  0  0  0  0  0  0  0  0
   26.5688  -20.5779  -16.2745 C   0  0  0  0  0  0  0  0  0  0  0  0
   27.1883  -21.7690  -15.6798 C   0  0  0  0  0  0  0  0  0  0  0  0
   28.3026  -22.4037  -16.3651 C   0  0  0  0  0  0  0  0  0  0  0  0
   28.8981  -23.3946  -15.8724 O   0  0  0  0  0  0  0  0  0  0  0  0
   25.7035  -19.5976  -14.1674 C   0  0  0  0  0  0  0  0  0  0  0  0
   26.4965  -18.6799  -13.8354 O   0  0  0  0  0  0  0  0  0  0  0  0
   28.7877  -21.9603  -17.6114 O   0  0  0  0  0  0  0  0  0  0  0  0
   25.3671  -18.8632   -8.5443 C   0  0  0  0  0  0  0  0  0  0  0  0
   25.8852  -19.9052   -9.4832 C   0  0  1  0  0  0  0  0  0  0  0  0
   25.5644  -21.3112   -8.9780 C   0  0  0  0  0  0  0  0  0  0  0  0
   25.5782  -19.7186  -10.9045 C   0  0  0  0  0  0  0  0  0  0  0  0
   25.8645  -20.7517  -11.9112 C   0  0  2  0  0  0  0  0  0  0  0  0
   25.0789  -20.3197  -13.1187 N   0  0  0  0  0  0  0  0  0  0  0  0
   25.5417  -22.1347  -11.6641 C   0  0  0  0  0  0  0  0  0  0  0  0
   26.4126  -22.9329  -11.1655 O   0  0  0  0  0  0  0  0  0  0  0  0
   24.3184  -22.7069  -11.9221 O   0  0  0  0  0  0  0  0  0  0  0  0
  2  1  1  1
  2 13  1  0
  3  2  1  0
  4  3  1  0
  5  4  2  0
  6  5  1  0
  7  6  1  0
  7 12  2  0
  8  7  1  0
  9  8  2  0
  9 10  1  0
 10 11  2  0
 11 12  1  0
 12  4  1  0
 13 14  2  0
 15 13  1  0
 15 16  1  0
 16 17  1  6
 18 17  1  0
 19 23  1  0
 19 18  1  0
 20 19  2  0
 21 16  1  0
 21 22  2  0
 25 24  1  1
 25 27  1  0
 25 26  1  0
 28 27  1  1
 28 29  1  0
 29 21  1  0
 30 28  1  0
 31 30  2  0
 32 30  1  0
M  END
$$$$
