WEL.pdb
     RDKit          3D

 32 33  0  0  1  0  0  0  0  0999 V2000
   14.9618  -16.2909    6.5938 N   0  0  0  0  0  0  0  0  0  0  0  0
   15.9700  -17.0290    5.8793 C   0  0  1  0  0  0  0  0  0  0  0  0
   17.3321  -16.5348    6.3008 C   0  0  0  0  0  0  0  0  0  0  0  0
   17.6611  -15.2196    5.7118 C   0  0  0  0  0  0  0  0  0  0  0  0
   17.5945  -13.9993    6.3974 C   0  0  0  0  0  0  0  0  0  0  0  0
   17.9820  -12.9955    5.5923 N   0  0  0  0  0  0  0  0  0  0  0  0
   18.3023  -13.5081    4.3985 C   0  0  0  0  0  0  0  0  0  0  0  0
   18.7456  -12.8811    3.2519 C   0  0  0  0  0  0  0  0  0  0  0  0
   19.0001  -13.6512    2.1357 C   0  0  0  0  0  0  0  0  0  0  0  0
   18.8089  -15.0211    2.1833 C   0  0  0  0  0  0  0  0  0  0  0  0
   18.3638  -15.6208    3.3470 C   0  0  0  0  0  0  0  0  0  0  0  0
   18.1068  -14.8847    4.4608 C   0  0  0  0  0  0  0  0  0  0  0  0
   15.7994  -18.4729    6.2160 C   0  0  0  0  0  0  0  0  0  0  0  0
   15.6289  -18.8429    7.4030 O   0  0  0  0  0  0  0  0  0  0  0  0
   15.8244  -19.4924    5.1949 N   0  0  0  0  0  0  0  0  0  0  0  0
   16.0313  -20.8667    5.5256 C   0  0  1  0  0  0  0  0  0  0  0  0
   15.8058  -21.8634    4.4590 C   0  0  0  0  0  0  0  0  0  0  0  0
   15.9174  -23.2989    4.7474 C   0  0  0  0  0  0  0  0  0  0  0  0
   17.1456  -23.9963    4.4018 C   0  0  0  0  0  0  0  0  0  0  0  0
   17.5929  -24.9304    5.1136 O   0  0  0  0  0  0  0  0  0  0  0  0
   17.3312  -21.0721    6.2469 C   0  0  0  0  0  0  0  0  0  0  0  0
   18.1579  -20.1360    6.3940 O   0  0  0  0  0  0  0  0  0  0  0  0
   17.9108  -23.6801    3.2618 O   0  0  0  0  0  0  0  0  0  0  0  0
   19.0036  -20.4196   11.0389 C   0  0  0  0  0  0  0  0  0  0  0  0
   19.2814  -21.5538   10.1051 C   0  0  1  0  0  0  0  0  0  0  0  0
   19.3206  -22.8862   10.8521 C   0  0  0  0  0  0  0  0  0  0  0  0
   18.4816  -21.6038    8.8774 C   0  0  0  0  0  0  0  0  0  0  0  0
   18.8439  -22.4621    7.7395 C   0  0  2  0  0  0  0  0  0  0  0  0
   17.6818  -22.3328    6.7937 N   0  0  0  0  0  0  0  0  0  0  0  0
   19.0897  -23.8704    7.9242 C   0  0  0  0  0  0  0  0  0  0  0  0
   18.1567  -24.7296    7.7360 O   0  0  0  0  0  0  0  0  0  0  0  0
   20.2990  -24.4073    8.2981 O   0  0  0  0  0  0  0  0  0  0  0  0
  2  1  1  1
  2 13  1  0
  3  2  1  0
  4  3  1  0
  5  4  2  0
  6  5  1  0
  7  6  1  0
  7 12  2  0
  8  7  1  0
  9  8  2  0
  9 10  1  0
 10 11  2  0
 11 12  1  0
 12  4  1  0
 13 14  2  0
 15 13  1  0
 15 16  1  0
 16 17  1  6
 18 17  1  0
 19 23  1  0
 19 18  1  0
 20 19  2  0
 21 16  1  0
 21 22  2  0
 25 24  1  1
 25 27  1  0
 25 26  1  0
 28 27  1  1
 28 29  1  0
 29 21  1  0
 30 28  1  0
 31 30  2  0
 32 30  1  0
M  END
$$$$
