WEL.pdb
     RDKit          3D

 32 33  0  0  1  0  0  0  0  0999 V2000
   25.4278  -19.4977  -15.4630 N   0  0  0  0  0  0  0  0  0  0  0  0
   26.3852  -19.6529  -14.3994 C   0  0  1  0  0  0  0  0  0  0  0  0
   27.3900  -18.5295  -14.4751 C   0  0  0  0  0  0  0  0  0  0  0  0
   28.1658  -18.5517  -15.7330 C   0  0  0  0  0  0  0  0  0  0  0  0
   28.3176  -17.4583  -16.5961 C   0  0  0  0  0  0  0  0  0  0  0  0
   29.1013  -17.7949  -17.6347 N   0  0  0  0  0  0  0  0  0  0  0  0
   29.4730  -19.0721  -17.4896 C   0  0  0  0  0  0  0  0  0  0  0  0
   30.2659  -19.8640  -18.2950 C   0  0  0  0  0  0  0  0  0  0  0  0
   30.4912  -21.1718  -17.9170 C   0  0  0  0  0  0  0  0  0  0  0  0
   29.9257  -21.6615  -16.7525 C   0  0  0  0  0  0  0  0  0  0  0  0
   29.1356  -20.8435  -15.9660 C   0  0  0  0  0  0  0  0  0  0  0  0
   28.8991  -19.5511  -16.3156 C   0  0  0  0  0  0  0  0  0  0  0  0
   25.6387  -19.6139  -13.1077 C   0  0  0  0  0  0  0  0  0  0  0  0
   24.9581  -18.6100  -12.7857 O   0  0  0  0  0  0  0  0  0  0  0  0
   25.6716  -20.7233  -12.1852 N   0  0  0  0  0  0  0  0  0  0  0  0
   24.8883  -20.7162  -10.9905 C   0  0  1  0  0  0  0  0  0  0  0  0
   23.5440  -21.3251  -11.0562 C   0  0  0  0  0  0  0  0  0  0  0  0
   22.5597  -20.8495  -12.0365 C   0  0  0  0  0  0  0  0  0  0  0  0
   21.5813  -19.8534  -11.6305 C   0  0  0  0  0  0  0  0  0  0  0  0
   21.8607  -18.6284  -11.6109 O   0  0  0  0  0  0  0  0  0  0  0  0
   25.6815  -21.1862   -9.8065 C   0  0  0  0  0  0  0  0  0  0  0  0
   26.2388  -22.3134   -9.7924 O   0  0  0  0  0  0  0  0  0  0  0  0
   20.2700  -20.1847  -11.2357 O   0  0  0  0  0  0  0  0  0  0  0  0
   28.6818  -18.1205   -6.1492 C   0  0  0  0  0  0  0  0  0  0  0  0
   28.2261  -19.2993   -6.9482 C   0  0  1  0  0  0  0  0  0  0  0  0
   29.3091  -20.3755   -7.0101 C   0  0  0  0  0  0  0  0  0  0  0  0
   26.8986  -19.8340   -6.6300 C   0  0  0  0  0  0  0  0  0  0  0  0
   26.3163  -20.9720   -7.3571 C   0  0  2  0  0  0  0  0  0  0  0  0
   25.8359  -20.3770   -8.6520 N   0  0  0  0  0  0  0  0  0  0  0  0
   25.2196  -21.7229   -6.7992 C   0  0  0  0  0  0  0  0  0  0  0  0
   24.0078  -21.4481   -7.1156 O   0  0  0  0  0  0  0  0  0  0  0  0
   25.3606  -22.7670   -5.9157 O   0  0  0  0  0  0  0  0  0  0  0  0
  2  1  1  6
  2 13  1  0
  3  2  1  0
  4  3  1  0
  5  4  2  0
  6  5  1  0
  7  6  1  0
  7 12  2  0
  8  7  1  0
  9  8  2  0
  9 10  1  0
 10 11  2  0
 11 12  1  0
 12  4  1  0
 13 14  2  0
 15 13  1  0
 15 16  1  0
 16 17  1  6
 18 17  1  0
 19 23  1  0
 19 18  1  0
 20 19  2  0
 21 16  1  0
 21 22  2  0
 25 24  1  1
 25 27  1  0
 25 26  1  0
 28 27  1  1
 28 29  1  0
 29 21  1  0
 30 28  1  0
 31 30  2  0
 32 30  1  0
M  END
$$$$
