WEL.pdb
     RDKit          3D

 32 33  0  0  1  0  0  0  0  0999 V2000
   20.9860  -14.6989  -18.6057 N   0  0  0  0  0  0  0  0  0  0  0  0
   20.3749  -14.4622  -17.3241 C   0  0  1  0  0  0  0  0  0  0  0  0
   21.2929  -14.9722  -16.2403 C   0  0  0  0  0  0  0  0  0  0  0  0
   21.4734  -16.4381  -16.2989 C   0  0  0  0  0  0  0  0  0  0  0  0
   22.7042  -17.0838  -16.4773 C   0  0  0  0  0  0  0  0  0  0  0  0
   22.5335  -18.4167  -16.4582 N   0  0  0  0  0  0  0  0  0  0  0  0
   21.2337  -18.6757  -16.2740 C   0  0  0  0  0  0  0  0  0  0  0  0
   20.5712  -19.8834  -16.1905 C   0  0  0  0  0  0  0  0  0  0  0  0
   19.2042  -19.8739  -16.0032 C   0  0  0  0  0  0  0  0  0  0  0  0
   18.5289  -18.6699  -15.9037 C   0  0  0  0  0  0  0  0  0  0  0  0
   19.2205  -17.4757  -15.9911 C   0  0  0  0  0  0  0  0  0  0  0  0
   20.5675  -17.4577  -16.1745 C   0  0  0  0  0  0  0  0  0  0  0  0
   20.1573  -12.9919  -17.1897 C   0  0  0  0  0  0  0  0  0  0  0  0
   21.0738  -12.1769  -17.4557 O   0  0  0  0  0  0  0  0  0  0  0  0
   18.8916  -12.4549  -16.7510 N   0  0  0  0  0  0  0  0  0  0  0  0
   18.6369  -11.0494  -16.7705 C   0  0  1  0  0  0  0  0  0  0  0  0
   17.2368  -10.6153  -16.9528 C   0  0  0  0  0  0  0  0  0  0  0  0
   16.2958  -10.6478  -15.8259 C   0  0  0  0  0  0  0  0  0  0  0  0
   14.9087  -10.2749  -16.0517 C   0  0  0  0  0  0  0  0  0  0  0  0
   14.1005  -11.0587  -16.6098 O   0  0  0  0  0  0  0  0  0  0  0  0
   19.3189  -10.3480  -15.6326 C   0  0  0  0  0  0  0  0  0  0  0  0
   19.2907  -10.8091  -14.4629 O   0  0  0  0  0  0  0  0  0  0  0  0
   14.3789   -9.0273  -15.6670 O   0  0  0  0  0  0  0  0  0  0  0  0
   24.4130   -8.8426  -15.7546 C   0  0  0  0  0  0  0  0  0  0  0  0
   23.0816   -9.2299  -15.1951 C   0  0  1  0  0  0  0  0  0  0  0  0
   23.2361   -9.9791  -13.8723 C   0  0  0  0  0  0  0  0  0  0  0  0
   22.0593   -8.1801  -15.1477 C   0  0  0  0  0  0  0  0  0  0  0  0
   20.6911   -8.4382  -14.6743 C   0  0  2  0  0  0  0  0  0  0  0  0
   20.0249   -9.1338  -15.8293 N   0  0  0  0  0  0  0  0  0  0  0  0
   19.8299   -7.3537  -14.2746 C   0  0  0  0  0  0  0  0  0  0  0  0
   20.0241   -6.7349  -13.1684 O   0  0  0  0  0  0  0  0  0  0  0  0
   18.7651   -6.8924  -15.0122 O   0  0  0  0  0  0  0  0  0  0  0  0
  2  1  1  6
  2 13  1  0
  3  2  1  0
  4  3  1  0
  5  4  2  0
  6  5  1  0
  7  6  1  0
  7 12  2  0
  8  7  1  0
  9  8  2  0
  9 10  1  0
 10 11  2  0
 11 12  1  0
 12  4  1  0
 13 14  2  0
 15 13  1  0
 15 16  1  0
 16 17  1  1
 18 17  1  0
 19 23  1  0
 19 18  1  0
 20 19  2  0
 21 16  1  0
 21 22  2  0
 25 24  1  1
 25 27  1  0
 25 26  1  0
 28 27  1  6
 28 29  1  0
 29 21  1  0
 30 28  1  0
 31 30  2  0
 32 30  1  0
M  END
$$$$
