WEL.pdb
     RDKit          3D

 32 33  0  0  1  0  0  0  0  0999 V2000
   27.3503  -22.1137  -15.4439 N   0  0  0  0  0  0  0  0  0  0  0  0
   26.4429  -22.2613  -14.3363 C   0  0  1  0  0  0  0  0  0  0  0  0
   26.3079  -20.9338  -13.6314 C   0  0  0  0  0  0  0  0  0  0  0  0
   27.5769  -20.4914  -13.0161 C   0  0  0  0  0  0  0  0  0  0  0  0
   28.5406  -19.7002  -13.6558 C   0  0  0  0  0  0  0  0  0  0  0  0
   29.5624  -19.4505  -12.8194 N   0  0  0  0  0  0  0  0  0  0  0  0
   29.3093  -20.0485  -11.6494 C   0  0  0  0  0  0  0  0  0  0  0  0
   30.0574  -20.0862  -10.4903 C   0  0  0  0  0  0  0  0  0  0  0  0
   29.5660  -20.7920   -9.4113 C   0  0  0  0  0  0  0  0  0  0  0  0
   28.3480  -21.4421   -9.5077 C   0  0  0  0  0  0  0  0  0  0  0  0
   27.6213  -21.3860  -10.6827 C   0  0  0  0  0  0  0  0  0  0  0  0
   28.0826  -20.6966  -11.7599 C   0  0  0  0  0  0  0  0  0  0  0  0
   25.1289  -22.7103  -14.8830 C   0  0  0  0  0  0  0  0  0  0  0  0
   24.5363  -22.0449  -15.7668 O   0  0  0  0  0  0  0  0  0  0  0  0
   24.4934  -23.9198  -14.4182 N   0  0  0  0  0  0  0  0  0  0  0  0
   23.2199  -24.3274  -14.9210 C   0  0  1  0  0  0  0  0  0  0  0  0
   23.1075  -25.7010  -15.4527 C   0  0  0  0  0  0  0  0  0  0  0  0
   24.2327  -26.3151  -16.1691 C   0  0  0  0  0  0  0  0  0  0  0  0
   24.3519  -26.1139  -17.6042 C   0  0  0  0  0  0  0  0  0  0  0  0
   23.3794  -26.3037  -18.3769 O   0  0  0  0  0  0  0  0  0  0  0  0
   22.1129  -23.9809  -13.9689 C   0  0  0  0  0  0  0  0  0  0  0  0
   22.1230  -24.3762  -12.7751 O   0  0  0  0  0  0  0  0  0  0  0  0
   25.5479  -25.6982  -18.2222 O   0  0  0  0  0  0  0  0  0  0  0  0
   20.3837  -19.3897  -12.2395 C   0  0  0  0  0  0  0  0  0  0  0  0
   21.7214  -19.9696  -12.5712 C   0  0  1  0  0  0  0  0  0  0  0  0
   22.5974  -20.0840  -11.3245 C   0  0  0  0  0  0  0  0  0  0  0  0
   21.7246  -21.1842  -13.3923 C   0  0  0  0  0  0  0  0  0  0  0  0
   20.5360  -22.0385  -13.5339 C   0  0  2  0  0  0  0  0  0  0  0  0
   21.0074  -23.1916  -14.3766 N   0  0  0  0  0  0  0  0  0  0  0  0
   19.3294  -21.5326  -14.1388 C   0  0  0  0  0  0  0  0  0  0  0  0
   18.3119  -21.2299  -13.4198 O   0  0  0  0  0  0  0  0  0  0  0  0
   19.1614  -21.3282  -15.4881 O   0  0  0  0  0  0  0  0  0  0  0  0
  2  1  1  6
  2 13  1  0
  3  2  1  0
  4  3  1  0
  5  4  2  0
  6  5  1  0
  7  6  1  0
  7 12  2  0
  8  7  1  0
  9  8  2  0
  9 10  1  0
 10 11  2  0
 11 12  1  0
 12  4  1  0
 13 14  2  0
 15 13  1  0
 15 16  1  0
 16 17  1  1
 18 17  1  0
 19 23  1  0
 19 18  1  0
 20 19  2  0
 21 16  1  0
 21 22  2  0
 25 24  1  1
 25 27  1  0
 25 26  1  0
 28 27  1  6
 28 29  1  0
 29 21  1  0
 30 28  1  0
 31 30  2  0
 32 30  1  0
M  END
$$$$
