WEL.pdb
     RDKit          3D

 32 33  0  0  1  0  0  0  0  0999 V2000
   28.1443  -20.3750  -10.2178 N   0  0  0  0  0  0  0  0  0  0  0  0
   26.8010  -20.7383   -9.8498 C   0  0  1  0  0  0  0  0  0  0  0  0
   26.2439  -19.6861   -8.9227 C   0  0  0  0  0  0  0  0  0  0  0  0
   27.1587  -19.3811   -7.8025 C   0  0  0  0  0  0  0  0  0  0  0  0
   27.9560  -18.2321   -7.7138 C   0  0  0  0  0  0  0  0  0  0  0  0
   28.6510  -18.2399   -6.5635 N   0  0  0  0  0  0  0  0  0  0  0  0
   28.3422  -19.3532   -5.8884 C   0  0  0  0  0  0  0  0  0  0  0  0
   28.7990  -19.8083   -4.6683 C   0  0  0  0  0  0  0  0  0  0  0  0
   28.3205  -21.0118   -4.1924 C   0  0  0  0  0  0  0  0  0  0  0  0
   27.4033  -21.7334   -4.9364 C   0  0  0  0  0  0  0  0  0  0  0  0
   26.9642  -21.2512   -6.1558 C   0  0  0  0  0  0  0  0  0  0  0  0
   27.4193  -20.0678   -6.6465 C   0  0  0  0  0  0  0  0  0  0  0  0
   25.9950  -20.8252  -11.1028 C   0  0  0  0  0  0  0  0  0  0  0  0
   26.2070  -20.0442  -12.0619 O   0  0  0  0  0  0  0  0  0  0  0  0
   24.9469  -21.8051  -11.2576 N   0  0  0  0  0  0  0  0  0  0  0  0
   24.0819  -21.7908  -12.3945 C   0  0  1  0  0  0  0  0  0  0  0  0
   23.9793  -23.0340  -13.1856 C   0  0  0  0  0  0  0  0  0  0  0  0
   25.1816  -23.6508  -13.7603 C   0  0  0  0  0  0  0  0  0  0  0  0
   25.0450  -24.8605  -14.5553 C   0  0  0  0  0  0  0  0  0  0  0  0
   23.9372  -25.4391  -14.6855 O   0  0  0  0  0  0  0  0  0  0  0  0
   22.7423  -21.2014  -12.0626 C   0  0  0  0  0  0  0  0  0  0  0  0
   22.5591  -20.5310  -11.0146 O   0  0  0  0  0  0  0  0  0  0  0  0
   26.1281  -25.4619  -15.2265 O   0  0  0  0  0  0  0  0  0  0  0  0
   20.6543  -16.9563  -13.1063 C   0  0  0  0  0  0  0  0  0  0  0  0
   21.0462  -17.8891  -14.2071 C   0  0  1  0  0  0  0  0  0  0  0  0
   21.9335  -17.1878  -15.2346 C   0  0  0  0  0  0  0  0  0  0  0  0
   21.5579  -19.2022  -13.8033 C   0  0  0  0  0  0  0  0  0  0  0  0
   20.6933  -20.2316  -13.2070 C   0  0  2  0  0  0  0  0  0  0  0  0
   21.6253  -21.3762  -12.9189 N   0  0  0  0  0  0  0  0  0  0  0  0
   19.5711  -20.7677  -13.9356 C   0  0  0  0  0  0  0  0  0  0  0  0
   18.3713  -20.4308  -13.6339 O   0  0  0  0  0  0  0  0  0  0  0  0
   19.6738  -21.6504  -14.9849 O   0  0  0  0  0  0  0  0  0  0  0  0
  2  1  1  6
  2 13  1  0
  3  2  1  0
  4  3  1  0
  5  4  2  0
  6  5  1  0
  7  6  1  0
  7 12  2  0
  8  7  1  0
  9  8  2  0
  9 10  1  0
 10 11  2  0
 11 12  1  0
 12  4  1  0
 13 14  2  0
 15 13  1  0
 15 16  1  0
 16 17  1  1
 18 17  1  0
 19 23  1  0
 19 18  1  0
 20 19  2  0
 21 16  1  0
 21 22  2  0
 25 24  1  1
 25 27  1  0
 25 26  1  0
 28 27  1  6
 28 29  1  0
 29 21  1  0
 30 28  1  0
 31 30  2  0
 32 30  1  0
M  END
$$$$
