CMA.pdb
     RDKit          3D

 20 19  0  0  1  0  0  0  0  0999 V2000
   15.5476  -10.2316  -14.8798 N   0  0  0  0  0  0  0  0  0  0  0  0
   16.4664   -9.4055  -15.5964 C   0  0  1  0  0  0  0  0  0  0  0  0
   15.9799   -7.9768  -15.5077 C   0  0  0  0  0  0  0  0  0  0  0  0
   14.5142   -7.7640  -16.5411 S   0  0  0  0  0  0  0  0  0  0  0  0
   17.8519   -9.4860  -15.0776 C   0  0  0  0  0  0  0  0  0  0  0  0
   18.0564   -9.6823  -13.8402 O   0  0  0  0  0  0  0  0  0  0  0  0
   24.1842  -12.4736  -14.2603 C   0  0  0  0  0  0  0  0  0  0  0  0
   22.4683  -12.2429  -14.8030 S   0  0  0  0  0  0  0  0  0  0  0  0
   22.4435  -10.7686  -15.9125 C   0  0  0  0  0  0  0  0  0  0  0  0
   21.0231  -10.4774  -16.2880 C   0  0  0  0  0  0  0  0  0  0  0  0
   20.3453   -9.4956  -15.3841 C   0  0  2  0  0  0  0  0  0  0  0  0
   18.9657   -9.3513  -15.9158 N   0  0  0  0  0  0  0  0  0  0  0  0
   20.9910   -8.1736  -15.4180 C   0  0  0  0  0  0  0  0  0  0  0  0
   20.6573   -7.3659  -16.3313 O   0  0  0  0  0  0  0  0  0  0  0  0
   22.9039   -5.9924  -15.9760 C   0  0  0  0  0  0  0  0  0  0  0  0
   22.5881   -6.4143  -14.5597 C   0  0  2  0  0  0  0  0  0  0  0  0
   21.9688   -7.7154  -14.4973 N   0  0  0  0  0  0  0  0  0  0  0  0
   21.8058   -5.3707  -13.8559 C   0  0  0  0  0  0  0  0  0  0  0  0
   20.5286   -5.6271  -13.3822 O   0  0  0  0  0  0  0  0  0  0  0  0
   22.2630   -4.2174  -13.6602 O   0  0  0  0  0  0  0  0  0  0  0  0
  2  1  1  1
  2  3  1  0
  3  4  1  0
  5  6  2  0
  5  2  1  0
  8  9  1  0
  8  7  1  0
  9 10  1  0
 11 10  1  6
 11 12  1  0
 11 13  1  0
 12  5  1  0
 13 14  2  0
 16 15  1  6
 17 13  1  0
 17 16  1  0
 18 19  1  0
 18 16  1  0
 20 18  2  0
M  END
$$$$
