CMA.pdb
     RDKit          3D

 20 19  0  0  1  0  0  0  0  0999 V2000
   30.5506  -11.7612  -18.6341 N   0  0  0  0  0  0  0  0  0  0  0  0
   31.5968  -10.8111  -18.8412 C   0  0  1  0  0  0  0  0  0  0  0  0
   31.0474   -9.6860  -19.6887 C   0  0  0  0  0  0  0  0  0  0  0  0
   30.8736  -10.2373  -21.3997 S   0  0  0  0  0  0  0  0  0  0  0  0
   32.1401  -10.2557  -17.5796 C   0  0  0  0  0  0  0  0  0  0  0  0
   31.3966  -10.1616  -16.5549 O   0  0  0  0  0  0  0  0  0  0  0  0
   38.2039  -10.9671  -12.9893 C   0  0  0  0  0  0  0  0  0  0  0  0
   37.4432  -11.1733  -14.6236 S   0  0  0  0  0  0  0  0  0  0  0  0
   35.9543  -10.0841  -14.6706 C   0  0  0  0  0  0  0  0  0  0  0  0
   35.2533  -10.2899  -15.9781 C   0  0  0  0  0  0  0  0  0  0  0  0
   34.0406   -9.4313  -16.1585 C   0  0  2  0  0  0  0  0  0  0  0  0
   33.4675   -9.8224  -17.4720 N   0  0  0  0  0  0  0  0  0  0  0  0
   34.3780   -7.9999  -16.2127 C   0  0  0  0  0  0  0  0  0  0  0  0
   35.1166   -7.5926  -17.1542 O   0  0  0  0  0  0  0  0  0  0  0  0
   33.2589   -4.7314  -14.7040 C   0  0  0  0  0  0  0  0  0  0  0  0
   34.2848   -5.6210  -15.3671 C   0  0  2  0  0  0  0  0  0  0  0  0
   33.9361   -7.0182  -15.2881 N   0  0  0  0  0  0  0  0  0  0  0  0
   35.6458   -5.3380  -14.8530 C   0  0  0  0  0  0  0  0  0  0  0  0
   36.3588   -6.2919  -14.1438 O   0  0  0  0  0  0  0  0  0  0  0  0
   36.2073   -4.2295  -15.0362 O   0  0  0  0  0  0  0  0  0  0  0  0
  2  1  1  1
  2  3  1  0
  3  4  1  0
  5  6  2  0
  5  2  1  0
  8  9  1  0
  8  7  1  0
  9 10  1  0
 11 10  1  6
 11 12  1  0
 11 13  1  0
 12  5  1  0
 13 14  2  0
 16 15  1  1
 17 13  1  0
 17 16  1  0
 18 19  1  0
 18 16  1  0
 20 18  2  0
M  END
$$$$
