CMA.pdb
     RDKit          3D

 20 19  0  0  1  0  0  0  0  0999 V2000
   27.3778  -26.9535  -16.6873 N   0  0  0  0  0  0  0  0  0  0  0  0
   28.7473  -27.2689  -16.9429 C   0  0  1  0  0  0  0  0  0  0  0  0
   28.8710  -27.6799  -18.3926 C   0  0  0  0  0  0  0  0  0  0  0  0
   28.2944  -29.3789  -18.5985 S   0  0  0  0  0  0  0  0  0  0  0  0
   29.6675  -26.1397  -16.6720 C   0  0  0  0  0  0  0  0  0  0  0  0
   29.2061  -24.9671  -16.5184 O   0  0  0  0  0  0  0  0  0  0  0  0
   34.6918  -26.8865  -12.9783 C   0  0  0  0  0  0  0  0  0  0  0  0
   35.4717  -25.7428  -14.1514 S   0  0  0  0  0  0  0  0  0  0  0  0
   34.1136  -24.8231  -14.9970 C   0  0  0  0  0  0  0  0  0  0  0  0
   33.0861  -25.8090  -15.4610 C   0  0  0  0  0  0  0  0  0  0  0  0
   31.9480  -25.1917  -16.2120 C   0  0  2  0  0  0  0  0  0  0  0  0
   31.0531  -26.3198  -16.5770 N   0  0  0  0  0  0  0  0  0  0  0  0
   32.3927  -24.5382  -17.4534 C   0  0  0  0  0  0  0  0  0  0  0  0
   33.1239  -23.5111  -17.3623 O   0  0  0  0  0  0  0  0  0  0  0  0
   33.1221  -25.1982  -20.9744 C   0  0  0  0  0  0  0  0  0  0  0  0
   32.4782  -24.2765  -19.9648 C   0  0  2  0  0  0  0  0  0  0  0  0
   32.0718  -24.9693  -18.7668 N   0  0  0  0  0  0  0  0  0  0  0  0
   31.3771  -23.4990  -20.5809 C   0  0  0  0  0  0  0  0  0  0  0  0
   31.5993  -22.6877  -21.6827 O   0  0  0  0  0  0  0  0  0  0  0  0
   30.2040  -23.5413  -20.1343 O   0  0  0  0  0  0  0  0  0  0  0  0
  2  1  1  6
  2  3  1  0
  3  4  1  0
  5  6  2  0
  5  2  1  0
  8  9  1  0
  8  7  1  0
  9 10  1  0
 11 10  1  6
 11 12  1  0
 11 13  1  0
 12  5  1  0
 13 14  2  0
 16 15  1  6
 17 13  1  0
 17 16  1  0
 18 19  1  0
 18 16  1  0
 20 18  2  0
M  END
$$$$
