CMA.pdb
     RDKit          3D

 20 19  0  0  1  0  0  0  0  0999 V2000
   19.6249  -12.2039  -17.8170 N   0  0  0  0  0  0  0  0  0  0  0  0
   20.3112  -10.9815  -18.0903 C   0  0  1  0  0  0  0  0  0  0  0  0
   19.2765   -9.9161  -18.3733 C   0  0  0  0  0  0  0  0  0  0  0  0
   18.4317  -10.2809  -19.9273 S   0  0  0  0  0  0  0  0  0  0  0  0
   21.1812  -10.5379  -16.9759 C   0  0  0  0  0  0  0  0  0  0  0  0
   20.8501  -10.7833  -15.7752 O   0  0  0  0  0  0  0  0  0  0  0  0
   27.1047  -11.8442  -15.3144 C   0  0  0  0  0  0  0  0  0  0  0  0
   27.2265  -10.0841  -15.7383 S   0  0  0  0  0  0  0  0  0  0  0  0
   25.5965   -9.3159  -15.3404 C   0  0  0  0  0  0  0  0  0  0  0  0
   24.6014   -9.7448  -16.3744 C   0  0  0  0  0  0  0  0  0  0  0  0
   23.1936   -9.3401  -16.0669 C   0  0  2  0  0  0  0  0  0  0  0  0
   22.3773   -9.8451  -17.2006 N   0  0  0  0  0  0  0  0  0  0  0  0
   23.0382   -7.8781  -16.0046 C   0  0  0  0  0  0  0  0  0  0  0  0
   22.8895   -7.2436  -17.0877 O   0  0  0  0  0  0  0  0  0  0  0  0
   23.9497   -5.0316  -15.7629 C   0  0  0  0  0  0  0  0  0  0  0  0
   22.9805   -5.6631  -14.7906 C   0  0  2  0  0  0  0  0  0  0  0  0
   23.0358   -7.1042  -14.8151 N   0  0  0  0  0  0  0  0  0  0  0  0
   21.6093   -5.1368  -14.9892 C   0  0  0  0  0  0  0  0  0  0  0  0
   21.3360   -3.7826  -14.8760 O   0  0  0  0  0  0  0  0  0  0  0  0
   20.6430   -5.8898  -15.2661 O   0  0  0  0  0  0  0  0  0  0  0  0
  2  1  1  1
  2  3  1  0
  3  4  1  0
  5  6  2  0
  5  2  1  0
  8  9  1  0
  8  7  1  0
  9 10  1  0
 11 10  1  6
 11 12  1  0
 11 13  1  0
 12  5  1  0
 13 14  2  0
 16 15  1  6
 17 13  1  0
 17 16  1  0
 18 19  1  0
 18 16  1  0
 20 18  2  0
M  END
$$$$
