CMA.pdb
     RDKit          3D

 20 19  0  0  1  0  0  0  0  0999 V2000
   21.5915  -14.7775  -16.2451 N   0  0  0  0  0  0  0  0  0  0  0  0
   21.6798  -13.5159  -16.9092 C   0  0  1  0  0  0  0  0  0  0  0  0
   20.2903  -13.1242  -17.3581 C   0  0  0  0  0  0  0  0  0  0  0  0
   19.6989  -14.2889  -18.6052 S   0  0  0  0  0  0  0  0  0  0  0  0
   22.2407  -12.4435  -16.0543 C   0  0  0  0  0  0  0  0  0  0  0  0
   21.8498  -12.3190  -14.8530 O   0  0  0  0  0  0  0  0  0  0  0  0
   28.5778  -13.2101  -15.3184 C   0  0  0  0  0  0  0  0  0  0  0  0
   27.7560  -11.7369  -15.9869 S   0  0  0  0  0  0  0  0  0  0  0  0
   26.0014  -11.7889  -15.4176 C   0  0  0  0  0  0  0  0  0  0  0  0
   25.2926  -10.5790  -15.9439 C   0  0  0  0  0  0  0  0  0  0  0  0
   23.8303  -10.5460  -15.6263 C   0  0  2  0  0  0  0  0  0  0  0  0
   23.2038  -11.5449  -16.5298 N   0  0  0  0  0  0  0  0  0  0  0  0
   23.2314   -9.2318  -15.9089 C   0  0  0  0  0  0  0  0  0  0  0  0
   22.8848   -8.9731  -17.0967 O   0  0  0  0  0  0  0  0  0  0  0  0
   22.9573   -6.2905  -16.4754 C   0  0  0  0  0  0  0  0  0  0  0  0
   22.3717   -6.9499  -15.2482 C   0  0  2  0  0  0  0  0  0  0  0  0
   23.0000   -8.2131  -14.9485 N   0  0  0  0  0  0  0  0  0  0  0  0
   20.8967   -7.0514  -15.3518 C   0  0  0  0  0  0  0  0  0  0  0  0
   20.1048   -5.9197  -15.4669 O   0  0  0  0  0  0  0  0  0  0  0  0
   20.3053   -8.1594  -15.3396 O   0  0  0  0  0  0  0  0  0  0  0  0
  2  1  1  1
  2  3  1  0
  3  4  1  0
  5  6  2  0
  5  2  1  0
  8  9  1  0
  8  7  1  0
  9 10  1  0
 11 10  1  6
 11 12  1  0
 11 13  1  0
 12  5  1  0
 13 14  2  0
 16 15  1  6
 17 13  1  0
 17 16  1  0
 18 19  1  0
 18 16  1  0
 20 18  2  0
M  END
$$$$
