CMA.pdb
     RDKit          3D

 20 19  0  0  1  0  0  0  0  0999 V2000
   20.2421   -6.3984  -13.9824 N   0  0  0  0  0  0  0  0  0  0  0  0
   20.7337   -7.7141  -14.2420 C   0  0  1  0  0  0  0  0  0  0  0  0
   19.5668   -8.6729  -14.1720 C   0  0  0  0  0  0  0  0  0  0  0  0
   19.0207   -8.8482  -12.4595 S   0  0  0  0  0  0  0  0  0  0  0  0
   21.3954   -7.8410  -15.5616 C   0  0  0  0  0  0  0  0  0  0  0  0
   21.0964   -7.0418  -16.5016 O   0  0  0  0  0  0  0  0  0  0  0  0
   27.0509   -6.4476  -17.8385 C   0  0  0  0  0  0  0  0  0  0  0  0
   27.0267   -8.2578  -17.7164 S   0  0  0  0  0  0  0  0  0  0  0  0
   25.3139   -8.8068  -18.1292 C   0  0  0  0  0  0  0  0  0  0  0  0
   24.4588   -8.6618  -16.9081 C   0  0  0  0  0  0  0  0  0  0  0  0
   23.0069   -8.9357  -17.1477 C   0  0  2  0  0  0  0  0  0  0  0  0
   22.3562   -8.8274  -15.8167 N   0  0  0  0  0  0  0  0  0  0  0  0
   22.7769  -10.2952  -17.6620 C   0  0  0  0  0  0  0  0  0  0  0  0
   22.9187  -11.2690  -16.8686 O   0  0  0  0  0  0  0  0  0  0  0  0
   21.4893  -12.0176  -20.7906 C   0  0  0  0  0  0  0  0  0  0  0  0
   22.2500  -11.9619  -19.4860 C   0  0  2  0  0  0  0  0  0  0  0  0
   22.3986  -10.6152  -18.9918 N   0  0  0  0  0  0  0  0  0  0  0  0
   23.5415  -12.6812  -19.5926 C   0  0  0  0  0  0  0  0  0  0  0  0
   23.6085  -14.0601  -19.4678 O   0  0  0  0  0  0  0  0  0  0  0  0
   24.6229  -12.0766  -19.7987 O   0  0  0  0  0  0  0  0  0  0  0  0
  2  1  1  6
  2  3  1  0
  3  4  1  0
  5  6  2  0
  5  2  1  0
  8  9  1  0
  8  7  1  0
  9 10  1  0
 11 10  1  1
 11 12  1  0
 11 13  1  0
 12  5  1  0
 13 14  2  0
 16 15  1  6
 17 13  1  0
 17 16  1  0
 18 19  1  0
 18 16  1  0
 20 18  2  0
M  END
$$$$
