CMA.pdb
     RDKit          3D

 20 19  0  0  1  0  0  0  0  0999 V2000
   17.4033  -11.1873  -14.6692 N   0  0  0  0  0  0  0  0  0  0  0  0
   17.9494  -10.3623  -15.6994 C   0  0  1  0  0  0  0  0  0  0  0  0
   16.9816   -9.2292  -15.9550 C   0  0  0  0  0  0  0  0  0  0  0  0
   15.6787   -9.7788  -17.0783 S   0  0  0  0  0  0  0  0  0  0  0  0
   19.2794   -9.8052  -15.3586 C   0  0  0  0  0  0  0  0  0  0  0  0
   19.5387   -9.4664  -14.1630 O   0  0  0  0  0  0  0  0  0  0  0  0
   26.3338  -10.4379  -14.7482 C   0  0  0  0  0  0  0  0  0  0  0  0
   24.5943  -10.8558  -15.0515 S   0  0  0  0  0  0  0  0  0  0  0  0
   24.0281   -9.8240  -16.4727 C   0  0  0  0  0  0  0  0  0  0  0  0
   22.5759  -10.1000  -16.7145 C   0  0  0  0  0  0  0  0  0  0  0  0
   21.6522   -9.2160  -15.9364 C   0  0  2  0  0  0  0  0  0  0  0  0
   20.2804   -9.6347  -16.3231 N   0  0  0  0  0  0  0  0  0  0  0  0
   21.8155   -7.7966  -16.2889 C   0  0  0  0  0  0  0  0  0  0  0  0
   21.3102   -7.3852  -17.3721 O   0  0  0  0  0  0  0  0  0  0  0  0
   21.3107   -5.0058  -16.6404 C   0  0  0  0  0  0  0  0  0  0  0  0
   22.4802   -5.4140  -15.7748 C   0  0  2  0  0  0  0  0  0  0  0  0
   22.4978   -6.8307  -15.5046 N   0  0  0  0  0  0  0  0  0  0  0  0
   22.5419   -4.5927  -14.5427 C   0  0  0  0  0  0  0  0  0  0  0  0
   22.7480   -3.2233  -14.6014 O   0  0  0  0  0  0  0  0  0  0  0  0
   22.4114   -5.0987  -13.4005 O   0  0  0  0  0  0  0  0  0  0  0  0
  2  1  1  1
  2  3  1  0
  3  4  1  0
  5  6  2  0
  5  2  1  0
  8  9  1  0
  8  7  1  0
  9 10  1  0
 11 10  1  6
 11 12  1  0
 11 13  1  0
 12  5  1  0
 13 14  2  0
 16 15  1  1
 17 13  1  0
 17 16  1  0
 18 19  1  0
 18 16  1  0
 20 18  2  0
M  END
$$$$
