VLV.pdb
     RDKit          3D

 23 22  0  0  1  0  0  0  0  0999 V2000
   29.2594  -20.8463  -12.8593 C   0  0  0  0  0  0  0  0  0  0  0  0
   28.4604  -20.9100  -14.1470 C   0  0  2  0  0  0  0  0  0  0  0  0
   29.2610  -20.2400  -15.2414 C   0  0  0  0  0  0  0  0  0  0  0  0
   27.1106  -20.2434  -13.9874 C   0  0  2  0  0  0  0  0  0  0  0  0
   27.2509  -18.8346  -13.6906 N   0  0  0  0  0  0  0  0  0  0  0  0
   26.3159  -20.8645  -12.9044 C   0  0  0  0  0  0  0  0  0  0  0  0
   25.9693  -22.0634  -13.0194 O   0  0  0  0  0  0  0  0  0  0  0  0
   26.6811  -18.9487   -7.7348 C   0  0  0  0  0  0  0  0  0  0  0  0
   26.6358  -19.8728   -8.9559 C   0  0  1  0  0  0  0  0  0  0  0  0
   26.9793  -21.2580   -8.3800 C   0  0  0  0  0  0  0  0  0  0  0  0
   25.2257  -19.9133   -9.4529 C   0  0  0  0  0  0  0  0  0  0  0  0
   25.0511  -20.7461  -10.7017 C   0  0  2  0  0  0  0  0  0  0  0  0
   25.9249  -20.1589  -11.7316 N   0  0  0  0  0  0  0  0  0  0  0  0
   23.6444  -20.6950  -11.1160 C   0  0  0  0  0  0  0  0  0  0  0  0
   22.7135  -20.6570  -10.2772 O   0  0  0  0  0  0  0  0  0  0  0  0
   22.4148  -18.5053  -14.1999 C   0  0  0  0  0  0  0  0  0  0  0  0
   21.7278  -19.8553  -14.2620 C   0  0  2  0  0  0  0  0  0  0  0  0
   20.3012  -19.6101  -14.6764 C   0  0  0  0  0  0  0  0  0  0  0  0
   21.8507  -20.4736  -12.8984 C   0  0  2  0  0  0  0  0  0  0  0  0
   23.2193  -20.6840  -12.4855 N   0  0  0  0  0  0  0  0  0  0  0  0
   21.1338  -21.7718  -12.8950 C   0  0  0  0  0  0  0  0  0  0  0  0
   21.6057  -22.8532  -13.3289 O   0  0  0  0  0  0  0  0  0  0  0  0
   19.8450  -21.8367  -12.3832 O   0  0  0  0  0  0  0  0  0  0  0  0
  2  1  1  1
  2  3  1  0
  4  2  1  0
  4  6  1  0
  4  5  1  1
  6 13  1  0
  6  7  2  0
  9  8  1  1
  9 11  1  0
 10  9  1  0
 12 11  1  1
 13 12  1  0
 14 12  1  0
 14 20  1  0
 15 14  2  0
 17 16  1  1
 18 17  1  0
 19 17  1  0
 19 20  1  6
 19 21  1  0
 21 23  1  0
 22 21  2  0
M  END
$$$$
