VLV.pdb
     RDKit          3D

 23 22  0  0  1  0  0  0  0  0999 V2000
   27.8456  -19.2015  -17.9399 C   0  0  0  0  0  0  0  0  0  0  0  0
   26.7477  -19.8139  -17.0913 C   0  0  2  0  0  0  0  0  0  0  0  0
   25.6226  -18.8110  -16.9665 C   0  0  0  0  0  0  0  0  0  0  0  0
   27.2671  -20.2076  -15.7249 C   0  0  2  0  0  0  0  0  0  0  0  0
   28.3661  -21.1425  -15.8286 N   0  0  0  0  0  0  0  0  0  0  0  0
   26.2116  -20.8289  -14.8941 C   0  0  0  0  0  0  0  0  0  0  0  0
   25.7170  -21.9205  -15.2608 O   0  0  0  0  0  0  0  0  0  0  0  0
   26.0902  -20.2391   -9.3915 C   0  0  0  0  0  0  0  0  0  0  0  0
   26.0652  -20.7997  -10.8172 C   0  0  1  0  0  0  0  0  0  0  0  0
   25.9484  -22.3203  -10.6109 C   0  0  0  0  0  0  0  0  0  0  0  0
   24.8115  -20.3233  -11.4792 C   0  0  0  0  0  0  0  0  0  0  0  0
   24.6447  -20.8344  -12.8915 C   0  0  2  0  0  0  0  0  0  0  0  0
   25.7298  -20.2405  -13.6909 N   0  0  0  0  0  0  0  0  0  0  0  0
   23.3320  -20.4176  -13.3974 C   0  0  0  0  0  0  0  0  0  0  0  0
   22.9963  -19.2104  -13.4371 O   0  0  0  0  0  0  0  0  0  0  0  0
   20.8063  -22.9644  -15.6500 C   0  0  0  0  0  0  0  0  0  0  0  0
   20.7090  -21.4533  -15.7228 C   0  0  2  0  0  0  0  0  0  0  0  0
   21.6754  -20.9957  -16.7830 C   0  0  0  0  0  0  0  0  0  0  0  0
   21.0367  -20.9257  -14.3550 C   0  0  2  0  0  0  0  0  0  0  0  0
   22.3393  -21.3329  -13.8804 N   0  0  0  0  0  0  0  0  0  0  0  0
   20.0010  -21.3917  -13.4013 C   0  0  0  0  0  0  0  0  0  0  0  0
   20.1883  -22.2488  -12.5009 O   0  0  0  0  0  0  0  0  0  0  0  0
   18.7187  -20.8655  -13.4780 O   0  0  0  0  0  0  0  0  0  0  0  0
  2  1  1  6
  2  3  1  0
  4  2  1  0
  4  6  1  0
  4  5  1  6
  6 13  1  0
  6  7  2  0
  9  8  1  1
  9 11  1  0
 10  9  1  0
 12 11  1  1
 13 12  1  0
 14 12  1  0
 14 20  1  0
 15 14  2  0
 17 16  1  1
 18 17  1  0
 19 17  1  0
 19 20  1  1
 19 21  1  0
 21 23  1  0
 22 21  2  0
M  END
$$$$
