VLV.pdb
     RDKit          3D

 23 22  0  0  1  0  0  0  0  0999 V2000
   26.5095  -17.2588  -15.1223 C   0  0  0  0  0  0  0  0  0  0  0  0
   27.3207  -18.2846  -15.8906 C   0  0  2  0  0  0  0  0  0  0  0  0
   26.4473  -18.8692  -16.9782 C   0  0  0  0  0  0  0  0  0  0  0  0
   27.8346  -19.3743  -14.9739 C   0  0  2  0  0  0  0  0  0  0  0  0
   28.7066  -20.2879  -15.6793 N   0  0  0  0  0  0  0  0  0  0  0  0
   26.7293  -20.1593  -14.3803 C   0  0  0  0  0  0  0  0  0  0  0  0
   26.2762  -21.1411  -15.0138 O   0  0  0  0  0  0  0  0  0  0  0  0
   25.9319  -20.2429   -8.8226 C   0  0  0  0  0  0  0  0  0  0  0  0
   26.1600  -20.6599  -10.2791 C   0  0  1  0  0  0  0  0  0  0  0  0
   26.1784  -22.1977  -10.2212 C   0  0  0  0  0  0  0  0  0  0  0  0
   24.9643  -20.2394  -11.0730 C   0  0  0  0  0  0  0  0  0  0  0  0
   25.0453  -20.6229  -12.5324 C   0  0  2  0  0  0  0  0  0  0  0  0
   26.1540  -19.8487  -13.1159 N   0  0  0  0  0  0  0  0  0  0  0  0
   23.7734  -20.2901  -13.1840 C   0  0  0  0  0  0  0  0  0  0  0  0
   23.4696  -19.1070  -13.4660 O   0  0  0  0  0  0  0  0  0  0  0  0
   20.0848  -21.3629  -16.1426 C   0  0  0  0  0  0  0  0  0  0  0  0
   21.4097  -21.7676  -15.5269 C   0  0  2  0  0  0  0  0  0  0  0  0
   21.3450  -23.2491  -15.2657 C   0  0  0  0  0  0  0  0  0  0  0  0
   21.5801  -20.9525  -14.2766 C   0  0  2  0  0  0  0  0  0  0  0  0
   22.7878  -21.2661  -13.5480 N   0  0  0  0  0  0  0  0  0  0  0  0
   20.4067  -21.1741  -13.3970 C   0  0  0  0  0  0  0  0  0  0  0  0
   20.4323  -21.8112  -12.3136 O   0  0  0  0  0  0  0  0  0  0  0  0
   19.1728  -20.6549  -13.7642 O   0  0  0  0  0  0  0  0  0  0  0  0
  2  1  1  1
  2  3  1  0
  4  2  1  0
  4  6  1  0
  4  5  1  6
  6 13  1  0
  6  7  2  0
  9  8  1  1
  9 11  1  0
 10  9  1  0
 12 11  1  1
 13 12  1  0
 14 12  1  0
 14 20  1  0
 15 14  2  0
 17 16  1  1
 18 17  1  0
 19 17  1  0
 19 20  1  1
 19 21  1  0
 21 23  1  0
 22 21  2  0
M  END
$$$$
