VLV.pdb
     RDKit          3D

 23 22  0  0  1  0  0  0  0  0999 V2000
   24.9042  -21.5228  -17.3692 C   0  0  0  0  0  0  0  0  0  0  0  0
   23.6895  -20.8128  -16.8027 C   0  0  2  0  0  0  0  0  0  0  0  0
   22.9978  -20.0750  -17.9274 C   0  0  0  0  0  0  0  0  0  0  0  0
   24.0810  -19.8559  -15.6968 C   0  0  2  0  0  0  0  0  0  0  0  0
   24.8468  -18.7417  -16.2111 N   0  0  0  0  0  0  0  0  0  0  0  0
   24.8875  -20.5248  -14.6517 C   0  0  0  0  0  0  0  0  0  0  0  0
   24.4154  -21.5325  -14.0754 O   0  0  0  0  0  0  0  0  0  0  0  0
   29.4183  -22.1549  -12.2516 C   0  0  0  0  0  0  0  0  0  0  0  0
   29.2194  -20.6413  -12.1224 C   0  0  1  0  0  0  0  0  0  0  0  0
   30.6291  -20.0660  -12.3472 C   0  0  0  0  0  0  0  0  0  0  0  0
   28.3488  -20.1913  -13.2522 C   0  0  0  0  0  0  0  0  0  0  0  0
   26.9073  -20.6218  -13.1099 C   0  0  2  0  0  0  0  0  0  0  0  0
   26.1822  -20.0738  -14.2688 N   0  0  0  0  0  0  0  0  0  0  0  0
   26.3711  -20.0849  -11.8540 C   0  0  0  0  0  0  0  0  0  0  0  0
   26.1465  -18.8604  -11.7059 O   0  0  0  0  0  0  0  0  0  0  0  0
   23.2081  -20.6021   -9.9722 C   0  0  0  0  0  0  0  0  0  0  0  0
   24.2957  -21.0139   -8.9997 C   0  0  2  0  0  0  0  0  0  0  0  0
   23.8619  -20.5637   -7.6300 C   0  0  0  0  0  0  0  0  0  0  0  0
   25.5680  -20.3625   -9.4622 C   0  0  2  0  0  0  0  0  0  0  0  0
   26.0633  -20.8943  -10.7110 N   0  0  0  0  0  0  0  0  0  0  0  0
   26.6022  -20.5337   -8.4132 C   0  0  0  0  0  0  0  0  0  0  0  0
   27.4780  -21.4355   -8.4095 O   0  0  0  0  0  0  0  0  0  0  0  0
   26.6371  -19.6525   -7.3410 O   0  0  0  0  0  0  0  0  0  0  0  0
  2  1  1  6
  2  3  1  0
  4  2  1  0
  4  6  1  0
  4  5  1  6
  6 13  1  0
  6  7  2  0
  9  8  1  6
  9 11  1  0
 10  9  1  0
 12 11  1  6
 13 12  1  0
 14 12  1  0
 14 20  1  0
 15 14  2  0
 17 16  1  6
 18 17  1  0
 19 17  1  0
 19 20  1  6
 19 21  1  0
 21 23  1  0
 22 21  2  0
M  END
$$$$
