NQD.pdb
     RDKit          3D

 26 25  0  0  1  0  0  0  0  0999 V2000
    7.4006  -12.2195   17.4594 N   0  0  0  0  0  0  0  0  0  0  0  0
    8.0507  -13.4279   17.8717 C   0  0  0  0  0  0  0  0  0  0  0  0
    8.4999  -14.1683   16.9592 O   0  0  0  0  0  0  0  0  0  0  0  0
    8.1444  -13.7109   19.3141 C   0  0  0  0  0  0  0  0  0  0  0  0
    8.4918  -15.1220   19.6004 C   0  0  2  0  0  0  0  0  0  0  0  0
    7.6448  -16.0510   18.9225 N   0  0  0  0  0  0  0  0  0  0  0  0
    8.5414  -15.4155   21.0700 C   0  0  0  0  0  0  0  0  0  0  0  0
    9.2654  -14.6789   21.7462 O   0  0  0  0  0  0  0  0  0  0  0  0
    5.0064  -19.5225   21.8085 N   0  0  0  0  0  0  0  0  0  0  0  0
    4.4862  -18.2140   21.9185 C   0  0  0  0  0  0  0  0  0  0  0  0
    3.3922  -17.9396   21.4044 O   0  0  0  0  0  0  0  0  0  0  0  0
    5.2417  -17.1499   22.6544 C   0  0  0  0  0  0  0  0  0  0  0  0
    6.4944  -17.6579   23.2978 C   0  0  0  0  0  0  0  0  0  0  0  0
    7.7473  -16.9024   22.9525 C   0  0  2  0  0  0  0  0  0  0  0  0
    7.7959  -16.4700   21.5907 N   0  0  0  0  0  0  0  0  0  0  0  0
    8.9588  -17.5314   23.4611 C   0  0  0  0  0  0  0  0  0  0  0  0
    9.2282  -18.7209   23.0990 O   0  0  0  0  0  0  0  0  0  0  0  0
    9.8847  -16.9237   24.3437 N   0  0  0  0  0  0  0  0  0  0  0  0
   10.9807  -17.7149   24.9291 C   0  0  1  0  0  0  0  0  0  0  0  0
   12.2871  -17.0216   24.7672 C   0  0  0  0  0  0  0  0  0  0  0  0
   12.6102  -16.8859   23.3337 C   0  0  0  0  0  0  0  0  0  0  0  0
   12.7060  -17.9352   22.6074 O   0  0  0  0  0  0  0  0  0  0  0  0
   10.6186  -17.8620   26.3722 C   0  0  0  0  0  0  0  0  0  0  0  0
   11.3840  -18.5347   27.1127 O   0  0  0  0  0  0  0  0  0  0  0  0
   12.8321  -15.6958   22.6648 O   0  0  0  0  0  0  0  0  0  0  0  0
    9.4984  -17.3068   26.9447 O   0  0  0  0  0  0  0  0  0  0  0  0
  1  2  1  0
  2  3  2  0
  4  2  1  0
  5  4  1  0
  5  6  1  6
  7 15  1  0
  7  5  1  0
  8  7  2  0
  9 10  1  0
 10 12  1  0
 11 10  2  0
 13 12  1  0
 14 13  1  6
 14 15  1  0
 16 14  1  0
 16 17  2  0
 18 16  1  0
 19 18  1  0
 19 20  1  1
 20 21  1  0
 21 25  1  0
 22 21  2  0
 23 19  1  0
 24 23  2  0
 26 23  1  0
M  END
$$$$
