NQD.pdb
     RDKit          3D

 26 25  0  0  1  0  0  0  0  0999 V2000
    6.8635  -14.6855   18.0089 N   0  0  0  0  0  0  0  0  0  0  0  0
    8.0126  -13.8314   18.0637 C   0  0  0  0  0  0  0  0  0  0  0  0
    8.1120  -12.9584   17.1634 O   0  0  0  0  0  0  0  0  0  0  0  0
    8.9802  -14.0354   19.1553 C   0  0  0  0  0  0  0  0  0  0  0  0
    8.5336  -15.0523   20.1351 C   0  0  2  0  0  0  0  0  0  0  0  0
    7.1176  -15.2393   20.1351 N   0  0  0  0  0  0  0  0  0  0  0  0
    9.0379  -14.7773   21.5201 C   0  0  0  0  0  0  0  0  0  0  0  0
   10.2500  -14.5675   21.6245 O   0  0  0  0  0  0  0  0  0  0  0  0
    5.4510  -12.4500   26.2112 N   0  0  0  0  0  0  0  0  0  0  0  0
    6.6911  -12.6933   26.8419 C   0  0  0  0  0  0  0  0  0  0  0  0
    6.8938  -12.2692   27.9889 O   0  0  0  0  0  0  0  0  0  0  0  0
    7.7680  -13.4631   26.1403 C   0  0  0  0  0  0  0  0  0  0  0  0
    7.4188  -13.8041   24.7250 C   0  0  0  0  0  0  0  0  0  0  0  0
    8.4643  -14.5797   23.9732 C   0  0  2  0  0  0  0  0  0  0  0  0
    8.1491  -14.7717   22.5920 N   0  0  0  0  0  0  0  0  0  0  0  0
    8.9303  -15.7611   24.6867 C   0  0  0  0  0  0  0  0  0  0  0  0
    8.1611  -16.7716   24.7640 O   0  0  0  0  0  0  0  0  0  0  0  0
   10.1918  -15.8884   25.3176 N   0  0  0  0  0  0  0  0  0  0  0  0
   10.5760  -17.1577   25.9587 C   0  0  1  0  0  0  0  0  0  0  0  0
   12.0553  -17.3111   25.9984 C   0  0  0  0  0  0  0  0  0  0  0  0
   12.5666  -17.6087   24.6464 C   0  0  0  0  0  0  0  0  0  0  0  0
   13.3356  -18.6164   24.4714 O   0  0  0  0  0  0  0  0  0  0  0  0
   10.0004  -17.0805   27.3365 C   0  0  0  0  0  0  0  0  0  0  0  0
    9.7445  -15.9424   27.8120 O   0  0  0  0  0  0  0  0  0  0  0  0
   12.2933  -16.8823   23.5015 O   0  0  0  0  0  0  0  0  0  0  0  0
    9.7314  -18.1777   28.1203 O   0  0  0  0  0  0  0  0  0  0  0  0
  1  2  1  0
  2  3  2  0
  4  2  1  0
  5  4  1  0
  5  6  1  1
  7 15  1  0
  7  5  1  0
  8  7  2  0
  9 10  1  0
 10 12  1  0
 11 10  2  0
 13 12  1  0
 14 13  1  1
 14 15  1  0
 16 14  1  0
 16 17  2  0
 18 16  1  0
 19 18  1  0
 19 20  1  1
 20 21  1  0
 21 25  1  0
 22 21  2  0
 23 19  1  0
 24 23  2  0
 26 23  1  0
M  END
$$$$
