NQD.pdb
     RDKit          3D

 26 25  0  0  1  0  0  0  0  0999 V2000
    8.0242  -12.0349   17.6910 N   0  0  0  0  0  0  0  0  0  0  0  0
    7.9749  -13.2697   18.4162 C   0  0  0  0  0  0  0  0  0  0  0  0
    7.6651  -14.2983   17.7614 O   0  0  0  0  0  0  0  0  0  0  0  0
    8.2863  -13.2447   19.8556 C   0  0  0  0  0  0  0  0  0  0  0  0
    8.2301  -14.5875   20.4780 C   0  0  2  0  0  0  0  0  0  0  0  0
    6.9490  -15.2059   20.3499 N   0  0  0  0  0  0  0  0  0  0  0  0
    8.6800  -14.5779   21.9083 C   0  0  0  0  0  0  0  0  0  0  0  0
    9.8094  -14.1260   22.1188 O   0  0  0  0  0  0  0  0  0  0  0  0
    8.0889  -13.0981   27.2033 N   0  0  0  0  0  0  0  0  0  0  0  0
    7.2702  -12.5072   26.2155 C   0  0  0  0  0  0  0  0  0  0  0  0
    7.0315  -11.2917   26.2582 O   0  0  0  0  0  0  0  0  0  0  0  0
    6.6868  -13.3341   25.1108 C   0  0  0  0  0  0  0  0  0  0  0  0
    7.0471  -14.7838   25.2096 C   0  0  0  0  0  0  0  0  0  0  0  0
    8.1440  -15.2387   24.2877 C   0  0  2  0  0  0  0  0  0  0  0  0
    7.8349  -15.0632   22.9030 N   0  0  0  0  0  0  0  0  0  0  0  0
    8.7045  -16.5327   24.6527 C   0  0  0  0  0  0  0  0  0  0  0  0
    7.9898  -17.5739   24.4987 O   0  0  0  0  0  0  0  0  0  0  0  0
   10.0038  -16.7405   25.1766 N   0  0  0  0  0  0  0  0  0  0  0  0
   10.4454  -18.0953   25.5497 C   0  0  1  0  0  0  0  0  0  0  0  0
   11.5676  -18.5496   24.6849 C   0  0  0  0  0  0  0  0  0  0  0  0
   12.5678  -17.4727   24.5519 C   0  0  0  0  0  0  0  0  0  0  0  0
   13.8107  -17.7712   24.4913 O   0  0  0  0  0  0  0  0  0  0  0  0
   10.8723  -17.9794   26.9779 C   0  0  0  0  0  0  0  0  0  0  0  0
   10.8287  -16.8442   27.5222 O   0  0  0  0  0  0  0  0  0  0  0  0
   12.2931  -16.1187   24.4857 O   0  0  0  0  0  0  0  0  0  0  0  0
   11.3111  -19.0380   27.7379 O   0  0  0  0  0  0  0  0  0  0  0  0
  1  2  1  0
  2  3  2  0
  4  2  1  0
  5  4  1  0
  5  6  1  1
  7 15  1  0
  7  5  1  0
  8  7  2  0
  9 10  1  0
 10 12  1  0
 11 10  2  0
 13 12  1  0
 14 13  1  1
 14 15  1  0
 16 14  1  0
 16 17  2  0
 18 16  1  0
 19 18  1  0
 19 20  1  6
 20 21  1  0
 21 25  1  0
 22 21  2  0
 23 19  1  0
 24 23  2  0
 26 23  1  0
M  END
$$$$
