NQD.pdb
     RDKit          3D

 26 25  0  0  1  0  0  0  0  0999 V2000
    8.0297  -15.6620   14.5480 N   0  0  0  0  0  0  0  0  0  0  0  0
    7.9196  -14.2993   14.9768 C   0  0  0  0  0  0  0  0  0  0  0  0
    7.6717  -13.4447   14.0876 O   0  0  0  0  0  0  0  0  0  0  0  0
    8.1024  -14.0029   16.4080 C   0  0  0  0  0  0  0  0  0  0  0  0
    8.4434  -15.2047   17.2037 C   0  0  2  0  0  0  0  0  0  0  0  0
    7.4080  -16.1887   17.1950 N   0  0  0  0  0  0  0  0  0  0  0  0
    8.8519  -14.8690   18.6067 C   0  0  0  0  0  0  0  0  0  0  0  0
    9.9816  -14.3900   18.7430 O   0  0  0  0  0  0  0  0  0  0  0  0
    7.5666  -12.6068   23.1664 N   0  0  0  0  0  0  0  0  0  0  0  0
    7.5657  -13.7576   23.9853 C   0  0  0  0  0  0  0  0  0  0  0  0
    7.7846  -13.6503   25.2006 O   0  0  0  0  0  0  0  0  0  0  0  0
    7.2993  -15.1115   23.4017 C   0  0  0  0  0  0  0  0  0  0  0  0
    7.0380  -15.0743   21.9281 C   0  0  0  0  0  0  0  0  0  0  0  0
    8.2634  -15.0490   21.0576 C   0  0  2  0  0  0  0  0  0  0  0  0
    7.9712  -15.1046   19.6592 N   0  0  0  0  0  0  0  0  0  0  0  0
    9.3181  -15.9408   21.5203 C   0  0  0  0  0  0  0  0  0  0  0  0
    9.2515  -17.1749   21.2179 O   0  0  0  0  0  0  0  0  0  0  0  0
   10.4365  -15.5485   22.2955 N   0  0  0  0  0  0  0  0  0  0  0  0
   11.4229  -16.5504   22.7348 C   0  0  1  0  0  0  0  0  0  0  0  0
   12.7924  -15.9707   22.7766 C   0  0  0  0  0  0  0  0  0  0  0  0
   13.7504  -16.9786   23.2709 C   0  0  0  0  0  0  0  0  0  0  0  0
   13.7287  -18.1612   22.7824 O   0  0  0  0  0  0  0  0  0  0  0  0
   10.9667  -16.9655   24.0968 C   0  0  0  0  0  0  0  0  0  0  0  0
   10.2281  -16.1763   24.7437 O   0  0  0  0  0  0  0  0  0  0  0  0
   14.7070  -16.7727   24.2484 O   0  0  0  0  0  0  0  0  0  0  0  0
   11.3035  -18.1593   24.6902 O   0  0  0  0  0  0  0  0  0  0  0  0
  1  2  1  0
  2  3  2  0
  4  2  1  0
  5  4  1  0
  5  6  1  1
  7 15  1  0
  7  5  1  0
  8  7  2  0
  9 10  1  0
 10 12  1  0
 11 10  2  0
 13 12  1  0
 14 13  1  1
 14 15  1  0
 16 14  1  0
 16 17  2  0
 18 16  1  0
 19 18  1  0
 19 20  1  1
 20 21  1  0
 21 25  1  0
 22 21  2  0
 23 19  1  0
 24 23  2  0
 26 23  1  0
M  END
$$$$
