NQD.pdb
     RDKit          3D

 26 25  0  0  1  0  0  0  0  0999 V2000
    7.6424  -12.6535   17.1214 N   0  0  0  0  0  0  0  0  0  0  0  0
    8.3515  -13.7831   17.6450 C   0  0  0  0  0  0  0  0  0  0  0  0
    8.4368  -14.7927   16.8993 O   0  0  0  0  0  0  0  0  0  0  0  0
    8.9208  -13.6810   18.9996 C   0  0  0  0  0  0  0  0  0  0  0  0
    8.3295  -14.6557   19.9452 C   0  0  2  0  0  0  0  0  0  0  0  0
    6.9012  -14.6471   19.9309 N   0  0  0  0  0  0  0  0  0  0  0  0
    8.8525  -14.4930   21.3410 C   0  0  0  0  0  0  0  0  0  0  0  0
   10.0794  -14.5409   21.4696 O   0  0  0  0  0  0  0  0  0  0  0  0
    5.4153  -11.9665   26.1071 N   0  0  0  0  0  0  0  0  0  0  0  0
    6.5322  -12.5061   26.7827 C   0  0  0  0  0  0  0  0  0  0  0  0
    6.6769  -12.3018   27.9966 O   0  0  0  0  0  0  0  0  0  0  0  0
    7.5466  -13.3281   26.0480 C   0  0  0  0  0  0  0  0  0  0  0  0
    7.2741  -13.4211   24.5789 C   0  0  0  0  0  0  0  0  0  0  0  0
    8.2820  -14.2055   23.7858 C   0  0  2  0  0  0  0  0  0  0  0  0
    7.9634  -14.3029   22.3956 N   0  0  0  0  0  0  0  0  0  0  0  0
    8.6843  -15.4475   24.4321 C   0  0  0  0  0  0  0  0  0  0  0  0
    7.8544  -16.4108   24.4752 O   0  0  0  0  0  0  0  0  0  0  0  0
    9.9454  -15.6839   25.0315 N   0  0  0  0  0  0  0  0  0  0  0  0
   10.3336  -17.0480   25.4294 C   0  0  1  0  0  0  0  0  0  0  0  0
   11.5981  -17.4606   24.7627 C   0  0  0  0  0  0  0  0  0  0  0  0
   11.9730  -18.8214   25.1936 C   0  0  0  0  0  0  0  0  0  0  0  0
   11.1008  -19.5644   25.7636 O   0  0  0  0  0  0  0  0  0  0  0  0
   10.4986  -16.9817   26.9140 C   0  0  0  0  0  0  0  0  0  0  0  0
   10.7485  -15.8628   27.4360 O   0  0  0  0  0  0  0  0  0  0  0  0
   13.2193  -19.4018   25.0426 O   0  0  0  0  0  0  0  0  0  0  0  0
   10.3939  -18.0692   27.7489 O   0  0  0  0  0  0  0  0  0  0  0  0
  1  2  1  0
  2  3  2  0
  4  2  1  0
  5  4  1  0
  5  6  1  1
  7 15  1  0
  7  5  1  0
  8  7  2  0
  9 10  1  0
 10 12  1  0
 11 10  2  0
 13 12  1  0
 14 13  1  1
 14 15  1  0
 16 14  1  0
 16 17  2  0
 18 16  1  0
 19 18  1  0
 19 20  1  6
 20 21  1  0
 21 25  1  0
 22 21  2  0
 23 19  1  0
 24 23  2  0
 26 23  1  0
M  END
$$$$
