NQD.pdb
     RDKit          3D

 26 25  0  0  1  0  0  0  0  0999 V2000
    6.7084  -14.2275   14.6026 N   0  0  0  0  0  0  0  0  0  0  0  0
    7.4344  -14.0339   15.8227 C   0  0  0  0  0  0  0  0  0  0  0  0
    8.6792  -14.2087   15.7740 O   0  0  0  0  0  0  0  0  0  0  0  0
    6.6802  -13.6495   17.0281 C   0  0  0  0  0  0  0  0  0  0  0  0
    7.5316  -13.5746   18.2377 C   0  0  2  0  0  0  0  0  0  0  0  0
    8.5438  -12.5713   18.1432 N   0  0  0  0  0  0  0  0  0  0  0  0
    8.1247  -14.9013   18.6068 C   0  0  0  0  0  0  0  0  0  0  0  0
    7.3236  -15.8245   18.7800 O   0  0  0  0  0  0  0  0  0  0  0  0
   11.6964  -18.4866   15.7515 N   0  0  0  0  0  0  0  0  0  0  0  0
   11.9195  -19.0049   17.0463 C   0  0  0  0  0  0  0  0  0  0  0  0
   12.4966  -20.0932   17.1843 O   0  0  0  0  0  0  0  0  0  0  0  0
   11.4683  -18.2514   18.2600 C   0  0  0  0  0  0  0  0  0  0  0  0
   10.7969  -16.9547   17.9299 C   0  0  0  0  0  0  0  0  0  0  0  0
   10.2311  -16.2057   19.1041 C   0  0  2  0  0  0  0  0  0  0  0  0
    9.5052  -15.0306   18.7353 N   0  0  0  0  0  0  0  0  0  0  0  0
   11.1794  -16.0471   20.1984 C   0  0  0  0  0  0  0  0  0  0  0  0
   11.9791  -15.0579   20.1757 O   0  0  0  0  0  0  0  0  0  0  0  0
   11.2944  -16.9162   21.3107 N   0  0  0  0  0  0  0  0  0  0  0  0
   12.3459  -16.6962   22.3185 C   0  0  1  0  0  0  0  0  0  0  0  0
   11.8050  -16.8411   23.6969 C   0  0  0  0  0  0  0  0  0  0  0  0
   12.8863  -16.6540   24.6836 C   0  0  0  0  0  0  0  0  0  0  0  0
   14.0740  -16.4056   24.2773 O   0  0  0  0  0  0  0  0  0  0  0  0
   13.3789  -17.7374   22.0277 C   0  0  0  0  0  0  0  0  0  0  0  0
   12.9921  -18.9178   21.8181 O   0  0  0  0  0  0  0  0  0  0  0  0
   12.7466  -16.7239   26.0579 O   0  0  0  0  0  0  0  0  0  0  0  0
   14.7298  -17.4867   21.9743 O   0  0  0  0  0  0  0  0  0  0  0  0
  1  2  1  0
  2  3  2  0
  4  2  1  0
  5  4  1  0
  5  6  1  6
  7 15  1  0
  7  5  1  0
  8  7  2  0
  9 10  1  0
 10 12  1  0
 11 10  2  0
 13 12  1  0
 14 13  1  6
 14 15  1  0
 16 14  1  0
 16 17  2  0
 18 16  1  0
 19 18  1  0
 19 20  1  1
 20 21  1  0
 21 25  1  0
 22 21  2  0
 23 19  1  0
 24 23  2  0
 26 23  1  0
M  END
$$$$
