HNP.pdb
     RDKit          3D

 26 27  0  0  1  0  0  0  0  0999 V2000
   19.3878  -20.1349  -15.3629 N   0  0  0  0  0  0  0  0  0  0  0  0
   20.5544  -19.6133  -16.0312 C   0  0  1  0  0  0  0  0  0  0  0  0
   20.2041  -18.2959  -16.6619 C   0  0  0  0  0  0  0  0  0  0  0  0
   19.3643  -18.4465  -17.8770 C   0  0  0  0  0  0  0  0  0  0  0  0
   18.0582  -18.0539  -18.0482 C   0  0  0  0  0  0  0  0  0  0  0  0
   17.7135  -18.3906  -19.3123 N   0  0  0  0  0  0  0  0  0  0  0  0
   18.7567  -18.9722  -19.9177 C   0  0  0  0  0  0  0  0  0  0  0  0
   19.7566  -19.0013  -19.0335 N   0  0  0  0  0  0  0  0  0  0  0  0
   21.7051  -19.4450  -15.1359 C   0  0  0  0  0  0  0  0  0  0  0  0
   21.5415  -18.9641  -13.9949 O   0  0  0  0  0  0  0  0  0  0  0  0
   25.5510  -22.1852  -12.4785 N   0  0  0  0  0  0  0  0  0  0  0  0
   24.7834  -20.9997  -12.5078 C   0  0  0  0  0  0  0  0  0  0  0  0
   24.9768  -20.0107  -11.7458 O   0  0  0  0  0  0  0  0  0  0  0  0
   23.6651  -20.9007  -13.4998 C   0  0  0  0  0  0  0  0  0  0  0  0
   24.1134  -20.0185  -14.6480 C   0  0  2  0  0  0  0  0  0  0  0  0
   23.0240  -19.8351  -15.5607 N   0  0  0  0  0  0  0  0  0  0  0  0
   25.3278  -20.4589  -15.3138 C   0  0  0  0  0  0  0  0  0  0  0  0
   25.0935  -21.4403  -16.1619 O   0  0  0  0  0  0  0  0  0  0  0  0
   26.6448  -20.0205  -15.1980 N   0  0  0  0  0  0  0  0  0  0  0  0
   27.1336  -19.1478  -14.1298 C   0  0  0  0  0  0  0  0  0  0  0  0
   27.8198  -18.0898  -14.9982 C   0  0  0  0  0  0  0  0  0  0  0  0
   28.6495  -18.9858  -15.9134 C   0  0  0  0  0  0  0  0  0  0  0  0
   27.7893  -20.2656  -16.0195 C   0  0  1  0  0  0  0  0  0  0  0  0
   28.5431  -21.3965  -15.4068 C   0  0  0  0  0  0  0  0  0  0  0  0
   29.5164  -21.8562  -16.0564 O   0  0  0  0  0  0  0  0  0  0  0  0
   28.2440  -21.9650  -14.1866 O   0  0  0  0  0  0  0  0  0  0  0  0
  2  3  1  0
  2  1  1  1
  4  3  1  0
  5  4  2  0
  6  5  1  0
  7  6  1  0
  7  8  2  0
  8  4  1  0
  9  2  1  0
  9 10  2  0
 11 12  1  0
 12 14  1  0
 13 12  2  0
 15 14  1  1
 15 16  1  0
 16  9  1  0
 17 15  1  0
 18 17  2  0
 19 17  1  0
 19 20  1  0
 20 21  1  0
 22 21  1  0
 23 19  1  0
 23 22  1  0
 23 24  1  1
 25 24  2  0
 26 24  1  0
M  END
$$$$
