HNP.pdb
     RDKit          3D

 26 27  0  0  1  0  0  0  0  0999 V2000
   20.5378  -20.8271  -12.8964 N   0  0  0  0  0  0  0  0  0  0  0  0
   21.6922  -21.3499  -13.5845 C   0  0  1  0  0  0  0  0  0  0  0  0
   21.3715  -21.4726  -15.0466 C   0  0  0  0  0  0  0  0  0  0  0  0
   20.3654  -22.5279  -15.3270 C   0  0  0  0  0  0  0  0  0  0  0  0
   20.5891  -23.8703  -15.5198 C   0  0  0  0  0  0  0  0  0  0  0  0
   19.3810  -24.4382  -15.7396 N   0  0  0  0  0  0  0  0  0  0  0  0
   18.4310  -23.4959  -15.6884 C   0  0  0  0  0  0  0  0  0  0  0  0
   19.0424  -22.3361  -15.4371 N   0  0  0  0  0  0  0  0  0  0  0  0
   22.8926  -20.5241  -13.4068 C   0  0  0  0  0  0  0  0  0  0  0  0
   22.8185  -19.2832  -13.5280 O   0  0  0  0  0  0  0  0  0  0  0  0
   25.1776  -20.3613  -10.5868 N   0  0  0  0  0  0  0  0  0  0  0  0
   26.2626  -21.1399  -11.0471 C   0  0  0  0  0  0  0  0  0  0  0  0
   27.0576  -21.7658  -10.2905 O   0  0  0  0  0  0  0  0  0  0  0  0
   26.4952  -21.2332  -12.5241 C   0  0  0  0  0  0  0  0  0  0  0  0
   25.4090  -20.4509  -13.2354 C   0  0  2  0  0  0  0  0  0  0  0  0
   24.1574  -21.1332  -13.0886 N   0  0  0  0  0  0  0  0  0  0  0  0
   25.7042  -20.1236  -14.6202 C   0  0  0  0  0  0  0  0  0  0  0  0
   24.8851  -20.7336  -15.4534 O   0  0  0  0  0  0  0  0  0  0  0  0
   26.6783  -19.2984  -15.1773 N   0  0  0  0  0  0  0  0  0  0  0  0
   27.7197  -18.6153  -14.4089 C   0  0  0  0  0  0  0  0  0  0  0  0
   27.5100  -17.1994  -14.9526 C   0  0  0  0  0  0  0  0  0  0  0  0
   27.5018  -17.4824  -16.4522 C   0  0  0  0  0  0  0  0  0  0  0  0
   26.9123  -18.9090  -16.5332 C   0  0  1  0  0  0  0  0  0  0  0  0
   27.9533  -19.8223  -17.0853 C   0  0  0  0  0  0  0  0  0  0  0  0
   28.1514  -19.7829  -18.3262 O   0  0  0  0  0  0  0  0  0  0  0  0
   28.7042  -20.6983  -16.3304 O   0  0  0  0  0  0  0  0  0  0  0  0
  2  3  1  0
  2  1  1  1
  4  3  1  0
  5  4  2  0
  6  5  1  0
  7  6  1  0
  7  8  2  0
  8  4  1  0
  9  2  1  0
  9 10  2  0
 11 12  1  0
 12 14  1  0
 13 12  2  0
 15 14  1  6
 15 16  1  0
 16  9  1  0
 17 15  1  0
 18 17  2  0
 19 17  1  0
 19 20  1  0
 20 21  1  0
 22 21  1  0
 23 19  1  0
 23 22  1  0
 23 24  1  1
 25 24  2  0
 26 24  1  0
M  END
$$$$
