HNP.pdb
     RDKit          3D

 26 27  0  0  1  0  0  0  0  0999 V2000
   21.3856  -13.8871  -19.1397 N   0  0  0  0  0  0  0  0  0  0  0  0
   22.3372  -12.8618  -18.7889 C   0  0  1  0  0  0  0  0  0  0  0  0
   23.2275  -12.6013  -19.9702 C   0  0  0  0  0  0  0  0  0  0  0  0
   24.0320  -13.7883  -20.3555 C   0  0  0  0  0  0  0  0  0  0  0  0
   25.3554  -14.0317  -20.0754 C   0  0  0  0  0  0  0  0  0  0  0  0
   25.6538  -15.2332  -20.6211 N   0  0  0  0  0  0  0  0  0  0  0  0
   24.5656  -15.7310  -21.2220 C   0  0  0  0  0  0  0  0  0  0  0  0
   23.5840  -14.8419  -21.0543 N   0  0  0  0  0  0  0  0  0  0  0  0
   21.7037  -11.6097  -18.3586 C   0  0  0  0  0  0  0  0  0  0  0  0
   20.6745  -11.2016  -18.9367 O   0  0  0  0  0  0  0  0  0  0  0  0
   20.5255   -7.4590  -15.7674 N   0  0  0  0  0  0  0  0  0  0  0  0
   21.0758   -8.3366  -14.8069 C   0  0  0  0  0  0  0  0  0  0  0  0
   21.0081   -8.1540  -13.5586 O   0  0  0  0  0  0  0  0  0  0  0  0
   21.7892   -9.5624  -15.2894 C   0  0  0  0  0  0  0  0  0  0  0  0
   21.6749   -9.6259  -16.7996 C   0  0  2  0  0  0  0  0  0  0  0  0
   22.2571  -10.8480  -17.2698 N   0  0  0  0  0  0  0  0  0  0  0  0
   22.1910   -8.4602  -17.4971 C   0  0  0  0  0  0  0  0  0  0  0  0
   23.4842   -8.5615  -17.7309 O   0  0  0  0  0  0  0  0  0  0  0  0
   21.5547   -7.3022  -17.9381 N   0  0  0  0  0  0  0  0  0  0  0  0
   20.1229   -7.0389  -17.7888 C   0  0  0  0  0  0  0  0  0  0  0  0
   19.8079   -6.6709  -19.2413 C   0  0  0  0  0  0  0  0  0  0  0  0
   20.9128   -5.6531  -19.5096 C   0  0  0  0  0  0  0  0  0  0  0  0
   22.0682   -6.1495  -18.6107 C   0  0  1  0  0  0  0  0  0  0  0  0
   22.3416   -5.1139  -17.5738 C   0  0  0  0  0  0  0  0  0  0  0  0
   21.8253   -5.2862  -16.4405 O   0  0  0  0  0  0  0  0  0  0  0  0
   23.1158   -3.9909  -17.7761 O   0  0  0  0  0  0  0  0  0  0  0  0
  2  3  1  0
  2  1  1  6
  4  3  1  0
  5  4  2  0
  6  5  1  0
  7  6  1  0
  7  8  2  0
  8  4  1  0
  9  2  1  0
  9 10  2  0
 11 12  1  0
 12 14  1  0
 13 12  2  0
 15 14  1  1
 15 16  1  0
 16  9  1  0
 17 15  1  0
 18 17  2  0
 19 17  1  0
 19 20  1  0
 20 21  1  0
 22 21  1  0
 23 19  1  0
 23 22  1  0
 23 24  1  1
 25 24  2  0
 26 24  1  0
M  END
$$$$
