HNP.pdb
     RDKit          3D

 26 27  0  0  1  0  0  0  0  0999 V2000
   28.0989  -23.8301  -17.9459 N   0  0  0  0  0  0  0  0  0  0  0  0
   27.1715  -24.1002  -16.8751 C   0  0  1  0  0  0  0  0  0  0  0  0
   27.7687  -25.1353  -15.9653 C   0  0  0  0  0  0  0  0  0  0  0  0
   27.7876  -26.4904  -16.5718 C   0  0  0  0  0  0  0  0  0  0  0  0
   26.8545  -27.4888  -16.4242 C   0  0  0  0  0  0  0  0  0  0  0  0
   27.2874  -28.5377  -17.1609 N   0  0  0  0  0  0  0  0  0  0  0  0
   28.4462  -28.2183  -17.7510 C   0  0  0  0  0  0  0  0  0  0  0  0
   28.7414  -26.9690  -17.3845 N   0  0  0  0  0  0  0  0  0  0  0  0
   26.8187  -22.9035  -16.1019 C   0  0  0  0  0  0  0  0  0  0  0  0
   27.7195  -22.1631  -15.6543 O   0  0  0  0  0  0  0  0  0  0  0  0
   24.1820  -18.1158  -15.2782 N   0  0  0  0  0  0  0  0  0  0  0  0
   23.6296  -19.4113  -15.1691 C   0  0  0  0  0  0  0  0  0  0  0  0
   22.6706  -19.7110  -14.4031 O   0  0  0  0  0  0  0  0  0  0  0  0
   24.2128  -20.5063  -16.0088 C   0  0  0  0  0  0  0  0  0  0  0  0
   25.0361  -21.4141  -15.1166 C   0  0  2  0  0  0  0  0  0  0  0  0
   25.4393  -22.5720  -15.8583 N   0  0  0  0  0  0  0  0  0  0  0  0
   24.4069  -21.7557  -13.8520 C   0  0  0  0  0  0  0  0  0  0  0  0
   23.7068  -22.8691  -13.9377 O   0  0  0  0  0  0  0  0  0  0  0  0
   24.4306  -21.1139  -12.6159 N   0  0  0  0  0  0  0  0  0  0  0  0
   25.1003  -19.8381  -12.3606 C   0  0  0  0  0  0  0  0  0  0  0  0
   25.9193  -20.2536  -11.1355 C   0  0  0  0  0  0  0  0  0  0  0  0
   24.8316  -20.9127  -10.2921 C   0  0  0  0  0  0  0  0  0  0  0  0
   23.8685  -21.4882  -11.3554 C   0  0  1  0  0  0  0  0  0  0  0  0
   22.5544  -20.7952  -11.2305 C   0  0  0  0  0  0  0  0  0  0  0  0
   22.2804  -19.9246  -12.0951 O   0  0  0  0  0  0  0  0  0  0  0  0
   21.6306  -21.0449  -10.2378 O   0  0  0  0  0  0  0  0  0  0  0  0
  2  3  1  0
  2  1  1  6
  4  3  1  0
  5  4  2  0
  6  5  1  0
  7  6  1  0
  7  8  2  0
  8  4  1  0
  9  2  1  0
  9 10  2  0
 11 12  1  0
 12 14  1  0
 13 12  2  0
 15 14  1  6
 15 16  1  0
 16  9  1  0
 17 15  1  0
 18 17  2  0
 19 17  1  0
 19 20  1  0
 20 21  1  0
 22 21  1  0
 23 19  1  0
 23 22  1  0
 23 24  1  1
 25 24  2  0
 26 24  1  0
M  END
$$$$
