HNP.pdb
     RDKit          3D

 26 27  0  0  1  0  0  0  0  0999 V2000
   24.2300  -14.4262  -17.1819 N   0  0  0  0  0  0  0  0  0  0  0  0
   24.3959  -13.0808  -16.6897 C   0  0  1  0  0  0  0  0  0  0  0  0
   25.8113  -12.6442  -16.9381 C   0  0  0  0  0  0  0  0  0  0  0  0
   26.8100  -13.5725  -16.3504 C   0  0  0  0  0  0  0  0  0  0  0  0
   27.5237  -13.4100  -15.1870 C   0  0  0  0  0  0  0  0  0  0  0  0
   28.3047  -14.5066  -15.0536 N   0  0  0  0  0  0  0  0  0  0  0  0
   28.0954  -15.3300  -16.0886 C   0  0  0  0  0  0  0  0  0  0  0  0
   27.1833  -14.7503  -16.8724 N   0  0  0  0  0  0  0  0  0  0  0  0
   23.4662  -12.1240  -17.3017 C   0  0  0  0  0  0  0  0  0  0  0  0
   22.9907  -12.3544  -18.4335 O   0  0  0  0  0  0  0  0  0  0  0  0
   19.2227  -10.1109  -18.6256 N   0  0  0  0  0  0  0  0  0  0  0  0
   19.5112  -10.1860  -17.2448 C   0  0  0  0  0  0  0  0  0  0  0  0
   18.8336   -9.6113  -16.3465 O   0  0  0  0  0  0  0  0  0  0  0  0
   20.6954  -10.9932  -16.8083 C   0  0  0  0  0  0  0  0  0  0  0  0
   21.9417  -10.1432  -16.9564 C   0  0  2  0  0  0  0  0  0  0  0  0
   23.0927  -10.9211  -16.6049 N   0  0  0  0  0  0  0  0  0  0  0  0
   21.8958   -8.8710  -16.2555 C   0  0  0  0  0  0  0  0  0  0  0  0
   22.1102   -9.0154  -14.9630 O   0  0  0  0  0  0  0  0  0  0  0  0
   21.6703   -7.5778  -16.7213 N   0  0  0  0  0  0  0  0  0  0  0  0
   21.2641   -7.2518  -18.0888 C   0  0  0  0  0  0  0  0  0  0  0  0
   22.3304   -6.1969  -18.3962 C   0  0  0  0  0  0  0  0  0  0  0  0
   22.2039   -5.3138  -17.1581 C   0  0  0  0  0  0  0  0  0  0  0  0
   21.7721   -6.3135  -16.0611 C   0  0  1  0  0  0  0  0  0  0  0  0
   20.4055   -5.9441  -15.5934 C   0  0  0  0  0  0  0  0  0  0  0  0
   19.4335   -6.3743  -16.2648 O   0  0  0  0  0  0  0  0  0  0  0  0
   20.1422   -5.1687  -14.4841 O   0  0  0  0  0  0  0  0  0  0  0  0
  2  3  1  0
  2  1  1  6
  4  3  1  0
  5  4  2  0
  6  5  1  0
  7  6  1  0
  7  8  2  0
  8  4  1  0
  9  2  1  0
  9 10  2  0
 11 12  1  0
 12 14  1  0
 13 12  2  0
 15 14  1  1
 15 16  1  0
 16  9  1  0
 17 15  1  0
 18 17  2  0
 19 17  1  0
 19 20  1  0
 20 21  1  0
 22 21  1  0
 23 19  1  0
 23 22  1  0
 23 24  1  6
 25 24  2  0
 26 24  1  0
M  END
$$$$
