WRA.pdb
     RDKit          3D

 31 32  0  0  1  0  0  0  0  0999 V2000
   26.9210  -22.4564  -11.6745 N   0  0  0  0  0  0  0  0  0  0  0  0
   25.9803  -21.4236  -11.3982 C   0  0  1  0  0  0  0  0  0  0  0  0
   26.6367  -20.0988  -11.0966 C   0  0  0  0  0  0  0  0  0  0  0  0
   27.7221  -20.2405  -10.0933 C   0  0  0  0  0  0  0  0  0  0  0  0
   29.0206  -20.6504  -10.4092 C   0  0  0  0  0  0  0  0  0  0  0  0
   29.7118  -20.6605   -9.2752 N   0  0  0  0  0  0  0  0  0  0  0  0
   28.9451  -20.2833   -8.2422 C   0  0  0  0  0  0  0  0  0  0  0  0
   29.1931  -20.1389   -6.9098 C   0  0  0  0  0  0  0  0  0  0  0  0
   28.1802  -19.7241   -6.0666 C   0  0  0  0  0  0  0  0  0  0  0  0
   26.9205  -19.4543   -6.5587 C   0  0  0  0  0  0  0  0  0  0  0  0
   26.6752  -19.6028   -7.9142 C   0  0  0  0  0  0  0  0  0  0  0  0
   27.6874  -20.0151   -8.7433 C   0  0  0  0  0  0  0  0  0  0  0  0
   24.9795  -21.2603  -12.4876 C   0  0  0  0  0  0  0  0  0  0  0  0
   25.3350  -21.0216  -13.6757 O   0  0  0  0  0  0  0  0  0  0  0  0
   18.9626  -24.9836   -9.9361 N   0  0  0  0  0  0  0  0  0  0  0  0
   19.1457  -23.8384   -9.1078 C   0  0  0  0  0  0  0  0  0  0  0  0
   19.0211  -23.8701   -7.8368 N   0  0  0  0  0  0  0  0  0  0  0  0
   19.4833  -22.6087   -9.7502 N   0  0  0  0  0  0  0  0  0  0  0  0
   19.7380  -22.5516  -11.1603 C   0  0  0  0  0  0  0  0  0  0  0  0
   21.1561  -22.0303  -11.4324 C   0  0  0  0  0  0  0  0  0  0  0  0
   21.2653  -21.8880  -12.9304 C   0  0  0  0  0  0  0  0  0  0  0  0
   22.6099  -21.2890  -13.3533 C   0  0  2  0  0  0  0  0  0  0  0  0
   23.5727  -21.3591  -12.2742 N   0  0  0  0  0  0  0  0  0  0  0  0
   22.3228  -19.8569  -13.6075 C   0  0  0  0  0  0  0  0  0  0  0  0
   22.1243  -19.1295  -12.6097 O   0  0  0  0  0  0  0  0  0  0  0  0
   19.1157  -23.0623   -7.2154 C   0  0  0  0  0  0  0  0  0  0  0  0
   22.5041  -17.4361  -16.3893 C   0  0  1  0  0  0  0  0  0  0  0  0
   21.9714  -17.8846  -15.0242 N   0  0  0  0  0  0  0  0  0  0  0  0
   22.2628  -19.2771  -14.9034 C   0  0  0  0  0  0  0  0  0  0  0  0
   20.5512  -17.5540  -14.9395 O   0  0  0  0  0  0  0  0  0  0  0  0
   20.1455  -16.2439  -14.7878 O   0  0  0  0  0  0  0  0  0  0  0  0
  2 13  1  0
  2  1  1  6
  3  2  1  0
  4  3  1  0
  4  5  2  0
  6  5  1  0
  7 12  2  0
  7  6  1  0
  8  7  1  0
  9 10  1  0
  9  8  2  0
 10 11  2  0
 11 12  1  0
 12  4  1  0
 13 14  2  0
 16 17  2  0
 16 15  1  0
 18 16  1  0
 19 20  1  0
 19 18  1  0
 20 21  1  0
 22 21  1  1
 23 22  1  0
 23 13  1  0
 24 25  2  0
 24 22  1  0
 27 26  1  1
 27 29  1  0
 27 28  1  0
 28 24  1  0
 29 30  1  0
 31 29  2  0
M  END
$$$$
