WRA.pdb
     RDKit          3D

 31 32  0  0  1  0  0  0  0  0999 V2000
   24.5744  -16.4091  -19.0493 N   0  0  0  0  0  0  0  0  0  0  0  0
   24.8368  -16.4599  -17.6506 C   0  0  1  0  0  0  0  0  0  0  0  0
   24.2221  -15.3062  -16.8969 C   0  0  0  0  0  0  0  0  0  0  0  0
   24.9634  -14.0411  -17.1313 C   0  0  0  0  0  0  0  0  0  0  0  0
   24.3589  -12.8576  -17.5646 C   0  0  0  0  0  0  0  0  0  0  0  0
   25.3181  -11.9442  -17.6622 N   0  0  0  0  0  0  0  0  0  0  0  0
   26.5077  -12.4588  -17.3200 C   0  0  0  0  0  0  0  0  0  0  0  0
   27.7624  -11.9296  -17.2605 C   0  0  0  0  0  0  0  0  0  0  0  0
   28.8210  -12.7230  -16.8619 C   0  0  0  0  0  0  0  0  0  0  0  0
   28.6219  -14.0449  -16.5234 C   0  0  0  0  0  0  0  0  0  0  0  0
   27.3440  -14.5765  -16.5858 C   0  0  0  0  0  0  0  0  0  0  0  0
   26.2994  -13.7808  -16.9827 C   0  0  0  0  0  0  0  0  0  0  0  0
   24.4151  -17.7500  -17.0399 C   0  0  0  0  0  0  0  0  0  0  0  0
   23.4988  -18.4513  -17.5533 O   0  0  0  0  0  0  0  0  0  0  0  0
   26.3839  -20.2595   -9.0454 N   0  0  0  0  0  0  0  0  0  0  0  0
   25.1486  -20.7930   -9.5149 C   0  0  0  0  0  0  0  0  0  0  0  0
   24.0477  -20.6660   -8.8793 N   0  0  0  0  0  0  0  0  0  0  0  0
   25.1659  -21.4992  -10.7558 N   0  0  0  0  0  0  0  0  0  0  0  0
   25.7953  -20.9442  -11.9187 C   0  0  0  0  0  0  0  0  0  0  0  0
   24.7414  -20.4856  -12.9365 C   0  0  0  0  0  0  0  0  0  0  0  0
   25.5113  -19.9351  -14.1113 C   0  0  0  0  0  0  0  0  0  0  0  0
   24.5880  -19.5359  -15.2662 C   0  0  2  0  0  0  0  0  0  0  0  0
   25.0030  -18.2790  -15.8529 N   0  0  0  0  0  0  0  0  0  0  0  0
   23.2637  -19.3219  -14.6349 C   0  0  0  0  0  0  0  0  0  0  0  0
   23.1901  -18.4429  -13.7484 O   0  0  0  0  0  0  0  0  0  0  0  0
   23.1384  -21.0073   -9.2023 C   0  0  0  0  0  0  0  0  0  0  0  0
   19.7319  -20.2149  -15.2078 C   0  0  1  0  0  0  0  0  0  0  0  0
   20.8749  -19.7650  -14.2915 N   0  0  0  0  0  0  0  0  0  0  0  0
   22.0932  -20.0506  -14.9790 C   0  0  0  0  0  0  0  0  0  0  0  0
   20.7371  -20.4348  -13.0008 O   0  0  0  0  0  0  0  0  0  0  0  0
   19.7881  -20.0140  -12.0918 O   0  0  0  0  0  0  0  0  0  0  0  0
  2 13  1  0
  2  1  1  6
  3  2  1  0
  4  3  1  0
  4  5  2  0
  6  5  1  0
  7 12  2  0
  7  6  1  0
  8  7  1  0
  9 10  1  0
  9  8  2  0
 10 11  2  0
 11 12  1  0
 12  4  1  0
 13 14  2  0
 16 17  2  0
 16 15  1  0
 18 16  1  0
 19 20  1  0
 19 18  1  0
 20 21  1  0
 22 21  1  1
 23 22  1  0
 23 13  1  0
 24 25  2  0
 24 22  1  0
 27 26  1  6
 27 29  1  0
 27 28  1  0
 28 24  1  0
 29 30  1  0
 31 29  2  0
M  END
$$$$
