WRA.pdb
     RDKit          3D

 31 32  0  0  1  0  0  0  0  0999 V2000
   24.8339  -20.8513   -9.1982 N   0  0  0  0  0  0  0  0  0  0  0  0
   26.1548  -20.4408   -9.5364 C   0  0  1  0  0  0  0  0  0  0  0  0
   27.2012  -21.0156   -8.6136 C   0  0  0  0  0  0  0  0  0  0  0  0
   26.9495  -20.6419   -7.1987 C   0  0  0  0  0  0  0  0  0  0  0  0
   25.7052  -20.7662   -6.5740 C   0  0  0  0  0  0  0  0  0  0  0  0
   25.8537  -20.3430   -5.3240 N   0  0  0  0  0  0  0  0  0  0  0  0
   27.1154  -19.9513   -5.0964 C   0  0  0  0  0  0  0  0  0  0  0  0
   27.7451  -19.4515   -3.9957 C   0  0  0  0  0  0  0  0  0  0  0  0
   29.0871  -19.1298   -4.0626 C   0  0  0  0  0  0  0  0  0  0  0  0
   29.7968  -19.3092   -5.2313 C   0  0  0  0  0  0  0  0  0  0  0  0
   29.1508  -19.8178   -6.3465 C   0  0  0  0  0  0  0  0  0  0  0  0
   27.8181  -20.1342   -6.2701 C   0  0  0  0  0  0  0  0  0  0  0  0
   26.5000  -20.7463  -10.9514 C   0  0  0  0  0  0  0  0  0  0  0  0
   27.3162  -21.6644  -11.2450 O   0  0  0  0  0  0  0  0  0  0  0  0
   23.9098  -25.7600  -13.7270 N   0  0  0  0  0  0  0  0  0  0  0  0
   22.9801  -24.6987  -13.5260 C   0  0  0  0  0  0  0  0  0  0  0  0
   21.9264  -24.8203  -12.8141 N   0  0  0  0  0  0  0  0  0  0  0  0
   23.2594  -23.4501  -14.1599 N   0  0  0  0  0  0  0  0  0  0  0  0
   24.4668  -23.2489  -14.9071 C   0  0  0  0  0  0  0  0  0  0  0  0
   25.5348  -22.5726  -14.0359 C   0  0  0  0  0  0  0  0  0  0  0  0
   25.3154  -21.0879  -14.1886 C   0  0  0  0  0  0  0  0  0  0  0  0
   26.3628  -20.2716  -13.4255 C   0  0  2  0  0  0  0  0  0  0  0  0
   25.9456  -20.0386  -12.0588 N   0  0  0  0  0  0  0  0  0  0  0  0
   26.3958  -18.9596  -14.1154 C   0  0  0  0  0  0  0  0  0  0  0  0
   25.9486  -17.9744  -13.4883 O   0  0  0  0  0  0  0  0  0  0  0  0
   21.2199  -24.0922  -12.6784 C   0  0  0  0  0  0  0  0  0  0  0  0
   28.2721  -16.8284  -15.2881 C   0  0  2  0  0  0  0  0  0  0  0  0
   27.0222  -17.4360  -15.9338 N   0  0  0  0  0  0  0  0  0  0  0  0
   26.9010  -18.7662  -15.4294 C   0  0  0  0  0  0  0  0  0  0  0  0
   27.1511  -17.3490  -17.3861 O   0  0  0  0  0  0  0  0  0  0  0  0
   27.2535  -16.1211  -18.0073 O   0  0  0  0  0  0  0  0  0  0  0  0
  2 13  1  0
  2  1  1  1
  3  2  1  0
  4  3  1  0
  4  5  2  0
  6  5  1  0
  7 12  2  0
  7  6  1  0
  8  7  1  0
  9 10  1  0
  9  8  2  0
 10 11  2  0
 11 12  1  0
 12  4  1  0
 13 14  2  0
 16 17  2  0
 16 15  1  0
 18 16  1  0
 19 20  1  0
 19 18  1  0
 20 21  1  0
 22 21  1  6
 23 22  1  0
 23 13  1  0
 24 25  2  0
 24 22  1  0
 27 26  1  1
 27 29  1  0
 27 28  1  0
 28 24  1  0
 29 30  1  0
 31 29  2  0
M  END
$$$$
