WRA.pdb
     RDKit          3D

 31 32  0  0  1  0  0  0  0  0999 V2000
   24.4060  -14.4066  -15.1267 N   0  0  0  0  0  0  0  0  0  0  0  0
   24.4436  -15.3551  -16.1881 C   0  0  1  0  0  0  0  0  0  0  0  0
   24.1228  -14.7451  -17.5305 C   0  0  0  0  0  0  0  0  0  0  0  0
   22.6903  -14.9158  -17.8821 C   0  0  0  0  0  0  0  0  0  0  0  0
   21.6783  -14.0539  -17.4499 C   0  0  0  0  0  0  0  0  0  0  0  0
   20.5374  -14.5103  -17.9538 N   0  0  0  0  0  0  0  0  0  0  0  0
   20.7434  -15.6141  -18.6859 C   0  0  0  0  0  0  0  0  0  0  0  0
   19.9060  -16.4285  -19.3883 C   0  0  0  0  0  0  0  0  0  0  0  0
   20.4193  -17.5205  -20.0614 C   0  0  0  0  0  0  0  0  0  0  0  0
   21.7703  -17.7955  -20.0304 C   0  0  0  0  0  0  0  0  0  0  0  0
   22.6161  -16.9636  -19.3147 C   0  0  0  0  0  0  0  0  0  0  0  0
   22.0969  -15.8819  -18.6497 C   0  0  0  0  0  0  0  0  0  0  0  0
   25.7408  -16.0815  -16.2553 C   0  0  0  0  0  0  0  0  0  0  0  0
   26.8420  -15.4644  -16.2153 O   0  0  0  0  0  0  0  0  0  0  0  0
   26.7393  -22.0163  -11.2164 N   0  0  0  0  0  0  0  0  0  0  0  0
   25.9241  -20.8564  -11.0702 C   0  0  0  0  0  0  0  0  0  0  0  0
   24.9885  -20.7664  -10.2051 N   0  0  0  0  0  0  0  0  0  0  0  0
   26.1828  -19.7559  -11.9424 N   0  0  0  0  0  0  0  0  0  0  0  0
   27.3305  -19.7420  -12.8021 C   0  0  0  0  0  0  0  0  0  0  0  0
   27.2340  -18.5910  -13.8134 C   0  0  0  0  0  0  0  0  0  0  0  0
   27.0863  -19.2398  -15.1674 C   0  0  0  0  0  0  0  0  0  0  0  0
   27.0944  -18.2101  -16.3010 C   0  0  2  0  0  0  0  0  0  0  0  0
   25.8343  -17.5003  -16.3677 N   0  0  0  0  0  0  0  0  0  0  0  0
   27.2242  -19.0133  -17.5405 C   0  0  0  0  0  0  0  0  0  0  0  0
   26.2006  -19.6073  -17.9446 O   0  0  0  0  0  0  0  0  0  0  0  0
   24.3721  -19.9579  -10.0861 C   0  0  0  0  0  0  0  0  0  0  0  0
   29.6661  -19.5197  -20.2771 C   0  0  1  0  0  0  0  0  0  0  0  0
   28.4301  -19.9313  -19.4701 N   0  0  0  0  0  0  0  0  0  0  0  0
   28.4303  -19.1410  -18.2810 C   0  0  0  0  0  0  0  0  0  0  0  0
   28.4758  -21.3728  -19.2386 O   0  0  0  0  0  0  0  0  0  0  0  0
   28.2565  -22.2555  -20.2763 O   0  0  0  0  0  0  0  0  0  0  0  0
  2 13  1  0
  2  1  1  1
  3  2  1  0
  4  3  1  0
  4  5  2  0
  6  5  1  0
  7 12  2  0
  7  6  1  0
  8  7  1  0
  9 10  1  0
  9  8  2  0
 10 11  2  0
 11 12  1  0
 12  4  1  0
 13 14  2  0
 16 17  2  0
 16 15  1  0
 18 16  1  0
 19 20  1  0
 19 18  1  0
 20 21  1  0
 22 21  1  1
 23 22  1  0
 23 13  1  0
 24 25  2  0
 24 22  1  0
 27 26  1  6
 27 29  1  0
 27 28  1  0
 28 24  1  0
 29 30  1  0
 31 29  2  0
M  END
$$$$
