WRA.pdb
     RDKit          3D

 31 32  0  0  1  0  0  0  0  0999 V2000
   28.0280  -22.4595  -11.5623 N   0  0  0  0  0  0  0  0  0  0  0  0
   27.0326  -21.4765  -11.2960 C   0  0  1  0  0  0  0  0  0  0  0  0
   27.6170  -20.1212  -10.9823 C   0  0  0  0  0  0  0  0  0  0  0  0
   28.4071  -20.1424   -9.7252 C   0  0  0  0  0  0  0  0  0  0  0  0
   29.7986  -20.2691   -9.6866 C   0  0  0  0  0  0  0  0  0  0  0  0
   30.1556  -20.2479   -8.4075 N   0  0  0  0  0  0  0  0  0  0  0  0
   29.0846  -20.1155   -7.6123 C   0  0  0  0  0  0  0  0  0  0  0  0
   28.9399  -20.0449   -6.2588 C   0  0  0  0  0  0  0  0  0  0  0  0
   27.6786  -19.9057   -5.7122 C   0  0  0  0  0  0  0  0  0  0  0  0
   26.5641  -19.8373   -6.5214 C   0  0  0  0  0  0  0  0  0  0  0  0
   26.7181  -19.9095   -7.8964 C   0  0  0  0  0  0  0  0  0  0  0  0
   27.9746  -20.0477   -8.4296 C   0  0  0  0  0  0  0  0  0  0  0  0
   26.0394  -21.3605  -12.3982 C   0  0  0  0  0  0  0  0  0  0  0  0
   26.4025  -21.1617  -13.5914 O   0  0  0  0  0  0  0  0  0  0  0  0
   18.8281  -22.9756  -11.0794 N   0  0  0  0  0  0  0  0  0  0  0  0
   18.3288  -22.4338  -12.2994 C   0  0  0  0  0  0  0  0  0  0  0  0
   17.2589  -21.7392  -12.3675 N   0  0  0  0  0  0  0  0  0  0  0  0
   19.0754  -22.6925  -13.4887 N   0  0  0  0  0  0  0  0  0  0  0  0
   20.3241  -23.3963  -13.4448 C   0  0  0  0  0  0  0  0  0  0  0  0
   21.4590  -22.5174  -13.9892 C   0  0  0  0  0  0  0  0  0  0  0  0
   22.4874  -22.4389  -12.8882 C   0  0  0  0  0  0  0  0  0  0  0  0
   23.6863  -21.5718  -13.2836 C   0  0  2  0  0  0  0  0  0  0  0  0
   24.6317  -21.4631  -12.1924 N   0  0  0  0  0  0  0  0  0  0  0  0
   23.1163  -20.2238  -13.5205 C   0  0  0  0  0  0  0  0  0  0  0  0
   22.6610  -19.6148  -12.5276 O   0  0  0  0  0  0  0  0  0  0  0  0
   16.8913  -21.3055  -13.2188 C   0  0  0  0  0  0  0  0  0  0  0  0
   23.1947  -17.6493  -16.1518 C   0  0  1  0  0  0  0  0  0  0  0  0
   22.5809  -18.2564  -14.8856 N   0  0  0  0  0  0  0  0  0  0  0  0
   23.0615  -19.5979  -14.7951 C   0  0  0  0  0  0  0  0  0  0  0  0
   21.1271  -18.1384  -14.9621 O   0  0  0  0  0  0  0  0  0  0  0  0
   20.5171  -16.9076  -14.8321 O   0  0  0  0  0  0  0  0  0  0  0  0
  2 13  1  0
  2  1  1  6
  3  2  1  0
  4  3  1  0
  4  5  2  0
  6  5  1  0
  7 12  2  0
  7  6  1  0
  8  7  1  0
  9 10  1  0
  9  8  2  0
 10 11  2  0
 11 12  1  0
 12  4  1  0
 13 14  2  0
 16 17  2  0
 16 15  1  0
 18 16  1  0
 19 20  1  0
 19 18  1  0
 20 21  1  0
 22 21  1  1
 23 22  1  0
 23 13  1  0
 24 25  2  0
 24 22  1  0
 27 26  1  1
 27 29  1  0
 27 28  1  0
 28 24  1  0
 29 30  1  0
 31 29  2  0
M  END
$$$$
