WRA.pdb
     RDKit          3D

 31 32  0  0  1  0  0  0  0  0999 V2000
   26.0906  -18.7164  -10.9601 N   0  0  0  0  0  0  0  0  0  0  0  0
   26.5165  -20.0618  -11.1503 C   0  0  1  0  0  0  0  0  0  0  0  0
   25.8121  -21.0340  -10.2362 C   0  0  0  0  0  0  0  0  0  0  0  0
   25.9710  -20.6578   -8.8086 C   0  0  0  0  0  0  0  0  0  0  0  0
   24.8978  -20.4657   -7.9338 C   0  0  0  0  0  0  0  0  0  0  0  0
   25.4121  -20.1435   -6.7524 N   0  0  0  0  0  0  0  0  0  0  0  0
   26.7513  -20.1138   -6.8038 C   0  0  0  0  0  0  0  0  0  0  0  0
   27.7074  -19.8417   -5.8712 C   0  0  0  0  0  0  0  0  0  0  0  0
   29.0420  -19.8903   -6.2257 C   0  0  0  0  0  0  0  0  0  0  0  0
   29.4173  -20.2114   -7.5133 C   0  0  0  0  0  0  0  0  0  0  0  0
   28.4404  -20.4871   -8.4563 C   0  0  0  0  0  0  0  0  0  0  0  0
   27.1181  -20.4362   -8.0947 C   0  0  0  0  0  0  0  0  0  0  0  0
   26.3843  -20.5051  -12.5649 C   0  0  0  0  0  0  0  0  0  0  0  0
   25.3899  -20.1706  -13.2679 O   0  0  0  0  0  0  0  0  0  0  0  0
   28.5263  -25.5885  -16.9043 N   0  0  0  0  0  0  0  0  0  0  0  0
   29.1591  -25.1669  -18.1097 C   0  0  0  0  0  0  0  0  0  0  0  0
   29.0572  -25.8061  -19.2110 N   0  0  0  0  0  0  0  0  0  0  0  0
   29.9388  -23.9718  -18.0605 N   0  0  0  0  0  0  0  0  0  0  0  0
   30.0185  -23.1843  -16.8647 C   0  0  0  0  0  0  0  0  0  0  0  0
   28.6730  -22.5040  -16.5753 C   0  0  0  0  0  0  0  0  0  0  0  0
   28.6491  -22.2478  -15.0887 C   0  0  0  0  0  0  0  0  0  0  0  0
   27.3771  -21.5143  -14.6533 C   0  0  2  0  0  0  0  0  0  0  0  0
   27.3519  -21.3246  -13.2181 N   0  0  0  0  0  0  0  0  0  0  0  0
   26.2701  -22.4359  -15.0044 C   0  0  0  0  0  0  0  0  0  0  0  0
   26.0755  -23.4092  -14.2437 O   0  0  0  0  0  0  0  0  0  0  0  0
   29.5592  -25.5776  -20.0733 C   0  0  0  0  0  0  0  0  0  0  0  0
   23.1027  -22.3971  -16.6017 C   0  0  1  0  0  0  0  0  0  0  0  0
   24.3786  -23.2113  -16.3614 N   0  0  0  0  0  0  0  0  0  0  0  0
   25.4324  -22.2736  -16.1408 C   0  0  0  0  0  0  0  0  0  0  0  0
   24.5907  -24.1035  -17.4982 O   0  0  0  0  0  0  0  0  0  0  0  0
   24.1019  -25.3937  -17.4760 O   0  0  0  0  0  0  0  0  0  0  0  0
  2 13  1  0
  2  1  1  6
  3  2  1  0
  4  3  1  0
  4  5  2  0
  6  5  1  0
  7 12  2  0
  7  6  1  0
  8  7  1  0
  9 10  1  0
  9  8  2  0
 10 11  2  0
 11 12  1  0
 12  4  1  0
 13 14  2  0
 16 17  2  0
 16 15  1  0
 18 16  1  0
 19 20  1  0
 19 18  1  0
 20 21  1  0
 22 21  1  1
 23 22  1  0
 23 13  1  0
 24 25  2  0
 24 22  1  0
 27 26  1  1
 27 29  1  0
 27 28  1  0
 28 24  1  0
 29 30  1  0
 31 29  2  0
M  END
$$$$
