WRA.pdb
     RDKit          3D

 31 32  0  0  1  0  0  0  0  0999 V2000
   28.4079  -20.7354  -15.4884 N   0  0  0  0  0  0  0  0  0  0  0  0
   27.2814  -21.5001  -15.0711 C   0  0  1  0  0  0  0  0  0  0  0  0
   26.1026  -20.6421  -14.6823 C   0  0  0  0  0  0  0  0  0  0  0  0
   26.3867  -19.8384  -13.4664 C   0  0  0  0  0  0  0  0  0  0  0  0
   26.9163  -18.5452  -13.4987 C   0  0  0  0  0  0  0  0  0  0  0  0
   27.0336  -18.1416  -12.2389 N   0  0  0  0  0  0  0  0  0  0  0  0
   26.6141  -19.0903  -11.3897 C   0  0  0  0  0  0  0  0  0  0  0  0
   26.5393  -19.1479  -10.0300 C   0  0  0  0  0  0  0  0  0  0  0  0
   26.0512  -20.2873   -9.4196 C   0  0  0  0  0  0  0  0  0  0  0  0
   25.6386  -21.3672  -10.1715 C   0  0  0  0  0  0  0  0  0  0  0  0
   25.7170  -21.3020  -11.5532 C   0  0  0  0  0  0  0  0  0  0  0  0
   26.2031  -20.1664  -12.1499 C   0  0  0  0  0  0  0  0  0  0  0  0
   26.8674  -22.5039  -16.0889 C   0  0  0  0  0  0  0  0  0  0  0  0
   26.8120  -22.2107  -17.3161 O   0  0  0  0  0  0  0  0  0  0  0  0
   28.3602  -30.7696  -16.0803 N   0  0  0  0  0  0  0  0  0  0  0  0
   29.0406  -29.5701  -16.4400 C   0  0  0  0  0  0  0  0  0  0  0  0
   30.3140  -29.4711  -16.4636 N   0  0  0  0  0  0  0  0  0  0  0  0
   28.2415  -28.4385  -16.7860 N   0  0  0  0  0  0  0  0  0  0  0  0
   26.8275  -28.5613  -16.9915 C   0  0  0  0  0  0  0  0  0  0  0  0
   26.2320  -27.2265  -17.4612 C   0  0  0  0  0  0  0  0  0  0  0  0
   26.6114  -26.2110  -16.4120 C   0  0  0  0  0  0  0  0  0  0  0  0
   26.0933  -24.8111  -16.7545 C   0  0  2  0  0  0  0  0  0  0  0  0
   26.5097  -23.8449  -15.7598 N   0  0  0  0  0  0  0  0  0  0  0  0
   24.6170  -24.9254  -16.6800 C   0  0  0  0  0  0  0  0  0  0  0  0
   24.0486  -25.5704  -17.5883 O   0  0  0  0  0  0  0  0  0  0  0  0
   30.8349  -28.6402  -16.7566 C   0  0  0  0  0  0  0  0  0  0  0  0
   21.9696  -24.6505  -14.1939 C   0  0  2  0  0  0  0  0  0  0  0  0
   22.4159  -24.5650  -15.6575 N   0  0  0  0  0  0  0  0  0  0  0  0
   23.8274  -24.3507  -15.6477 C   0  0  0  0  0  0  0  0  0  0  0  0
   21.6491  -23.5159  -16.3246 O   0  0  0  0  0  0  0  0  0  0  0  0
   20.2807  -23.6287  -16.4613 O   0  0  0  0  0  0  0  0  0  0  0  0
  2 13  1  0
  2  1  1  6
  3  2  1  0
  4  3  1  0
  4  5  2  0
  6  5  1  0
  7 12  2  0
  7  6  1  0
  8  7  1  0
  9 10  1  0
  9  8  2  0
 10 11  2  0
 11 12  1  0
 12  4  1  0
 13 14  2  0
 16 17  2  0
 16 15  1  0
 18 16  1  0
 19 20  1  0
 19 18  1  0
 20 21  1  0
 22 21  1  1
 23 22  1  0
 23 13  1  0
 24 25  2  0
 24 22  1  0
 27 26  1  6
 27 29  1  0
 27 28  1  0
 28 24  1  0
 29 30  1  0
 31 29  2  0
M  END
$$$$
