WRA.pdb
     RDKit          3D

 31 32  0  0  1  0  0  0  0  0999 V2000
   19.1606  -18.6210  -13.1570 N   0  0  0  0  0  0  0  0  0  0  0  0
   20.2199  -18.6493  -14.1083 C   0  0  1  0  0  0  0  0  0  0  0  0
   20.9339  -17.3254  -14.2294 C   0  0  0  0  0  0  0  0  0  0  0  0
   20.6964  -16.6934  -15.5519 C   0  0  0  0  0  0  0  0  0  0  0  0
   19.5535  -15.9505  -15.8616 C   0  0  0  0  0  0  0  0  0  0  0  0
   19.6838  -15.5426  -17.1188 N   0  0  0  0  0  0  0  0  0  0  0  0
   20.8386  -15.9732  -17.6459 C   0  0  0  0  0  0  0  0  0  0  0  0
   21.4105  -15.8180  -18.8734 C   0  0  0  0  0  0  0  0  0  0  0  0
   22.6402  -16.3920  -19.1326 C   0  0  0  0  0  0  0  0  0  0  0  0
   23.2958  -17.1204  -18.1623 C   0  0  0  0  0  0  0  0  0  0  0  0
   22.7092  -17.2741  -16.9166 C   0  0  0  0  0  0  0  0  0  0  0  0
   21.4879  -16.7004  -16.6690 C   0  0  0  0  0  0  0  0  0  0  0  0
   21.2011  -19.7342  -13.8341 C   0  0  0  0  0  0  0  0  0  0  0  0
   21.4713  -20.0925  -12.6535 O   0  0  0  0  0  0  0  0  0  0  0  0
   21.0271  -27.4016  -13.7697 N   0  0  0  0  0  0  0  0  0  0  0  0
   22.0356  -26.8120  -12.9533 C   0  0  0  0  0  0  0  0  0  0  0  0
   22.3461  -27.2584  -11.7974 N   0  0  0  0  0  0  0  0  0  0  0  0
   22.7173  -25.6695  -13.4717 N   0  0  0  0  0  0  0  0  0  0  0  0
   22.3670  -25.1080  -14.7439 C   0  0  0  0  0  0  0  0  0  0  0  0
   23.3092  -23.9498  -15.1012 C   0  0  0  0  0  0  0  0  0  0  0  0
   22.4192  -22.7720  -15.4122 C   0  0  0  0  0  0  0  0  0  0  0  0
   22.7973  -21.5348  -14.5925 C   0  0  2  0  0  0  0  0  0  0  0  0
   21.8950  -20.4355  -14.8641 N   0  0  0  0  0  0  0  0  0  0  0  0
   24.1396  -21.1479  -15.0890 C   0  0  0  0  0  0  0  0  0  0  0  0
   24.2103  -20.7083  -16.2576 O   0  0  0  0  0  0  0  0  0  0  0  0
   23.0808  -26.8758  -11.1961 C   0  0  0  0  0  0  0  0  0  0  0  0
   27.6250  -20.8736  -13.8215 C   0  0  1  0  0  0  0  0  0  0  0  0
   26.5810  -20.9520  -14.9406 N   0  0  0  0  0  0  0  0  0  0  0  0
   25.3300  -21.2484  -14.3195 C   0  0  0  0  0  0  0  0  0  0  0  0
   27.0168  -21.9394  -15.9248 O   0  0  0  0  0  0  0  0  0  0  0  0
   28.1248  -21.7010  -16.7119 O   0  0  0  0  0  0  0  0  0  0  0  0
  2 13  1  0
  2  1  1  1
  3  2  1  0
  4  3  1  0
  4  5  2  0
  6  5  1  0
  7 12  2  0
  7  6  1  0
  8  7  1  0
  9 10  1  0
  9  8  2  0
 10 11  2  0
 11 12  1  0
 12  4  1  0
 13 14  2  0
 16 17  2  0
 16 15  1  0
 18 16  1  0
 19 20  1  0
 19 18  1  0
 20 21  1  0
 22 21  1  6
 23 22  1  0
 23 13  1  0
 24 25  2  0
 24 22  1  0
 27 26  1  1
 27 29  1  0
 27 28  1  0
 28 24  1  0
 29 30  1  0
 31 29  2  0
M  END
$$$$
