WRA.pdb
     RDKit          3D

 31 32  0  0  1  0  0  0  0  0999 V2000
   26.4432  -18.7835   -9.9555 N   0  0  0  0  0  0  0  0  0  0  0  0
   26.4673  -20.0689  -10.5679 C   0  0  1  0  0  0  0  0  0  0  0  0
   26.5656  -21.1932   -9.5663 C   0  0  0  0  0  0  0  0  0  0  0  0
   27.7490  -21.0387   -8.6829 C   0  0  0  0  0  0  0  0  0  0  0  0
   27.7058  -20.4180   -7.4312 C   0  0  0  0  0  0  0  0  0  0  0  0
   28.9357  -20.4635   -6.9320 N   0  0  0  0  0  0  0  0  0  0  0  0
   29.7756  -21.0741   -7.7798 C   0  0  0  0  0  0  0  0  0  0  0  0
   31.1075  -21.3577   -7.7195 C   0  0  0  0  0  0  0  0  0  0  0  0
   31.7154  -22.0137   -8.7726 C   0  0  0  0  0  0  0  0  0  0  0  0
   30.9890  -22.3851   -9.8844 C   0  0  0  0  0  0  0  0  0  0  0  0
   29.6355  -22.0942   -9.9392 C   0  0  0  0  0  0  0  0  0  0  0  0
   29.0410  -21.4425   -8.8886 C   0  0  0  0  0  0  0  0  0  0  0  0
   25.3046  -20.2903  -11.4702 C   0  0  0  0  0  0  0  0  0  0  0  0
   24.1256  -20.0336  -11.0973 O   0  0  0  0  0  0  0  0  0  0  0  0
   28.6644  -21.5818  -16.1634 N   0  0  0  0  0  0  0  0  0  0  0  0
   28.3665  -22.9062  -16.5972 C   0  0  0  0  0  0  0  0  0  0  0  0
   29.2335  -23.8441  -16.6198 N   0  0  0  0  0  0  0  0  0  0  0  0
   27.0301  -23.1746  -17.0224 N   0  0  0  0  0  0  0  0  0  0  0  0
   26.0075  -22.1726  -16.9387 C   0  0  0  0  0  0  0  0  0  0  0  0
   25.4184  -22.1190  -15.5221 C   0  0  0  0  0  0  0  0  0  0  0  0
   25.1630  -20.6603  -15.2340 C   0  0  0  0  0  0  0  0  0  0  0  0
   24.5166  -20.4510  -13.8615 C   0  0  2  0  0  0  0  0  0  0  0  0
   25.4336  -20.7990  -12.7964 N   0  0  0  0  0  0  0  0  0  0  0  0
   23.3931  -21.4177  -13.8213 C   0  0  0  0  0  0  0  0  0  0  0  0
   23.6868  -22.6290  -13.7198 O   0  0  0  0  0  0  0  0  0  0  0  0
   29.0653  -24.7937  -16.9628 C   0  0  0  0  0  0  0  0  0  0  0  0
   19.6942  -21.3649  -13.5316 C   0  0  1  0  0  0  0  0  0  0  0  0
   21.0266  -22.0658  -13.8178 N   0  0  0  0  0  0  0  0  0  0  0  0
   22.0233  -21.0461  -13.8904 C   0  0  0  0  0  0  0  0  0  0  0  0
   20.8887  -22.8647  -15.0328 O   0  0  0  0  0  0  0  0  0  0  0  0
   20.1988  -24.0595  -15.0102 O   0  0  0  0  0  0  0  0  0  0  0  0
  2 13  1  0
  2  1  1  1
  3  2  1  0
  4  3  1  0
  4  5  2  0
  6  5  1  0
  7 12  2  0
  7  6  1  0
  8  7  1  0
  9 10  1  0
  9  8  2  0
 10 11  2  0
 11 12  1  0
 12  4  1  0
 13 14  2  0
 16 17  2  0
 16 15  1  0
 18 16  1  0
 19 20  1  0
 19 18  1  0
 20 21  1  0
 22 21  1  6
 23 22  1  0
 23 13  1  0
 24 25  2  0
 24 22  1  0
 27 26  1  1
 27 29  1  0
 27 28  1  0
 28 24  1  0
 29 30  1  0
 31 29  2  0
M  END
$$$$
