WRA.pdb
     RDKit          3D

 31 32  0  0  1  0  0  0  0  0999 V2000
   17.0598  -29.7279   -6.3676 N   0  0  0  0  0  0  0  0  0  0  0  0
   18.2566  -29.7289   -5.5958 C   0  0  1  0  0  0  0  0  0  0  0  0
   18.0301  -29.3126   -4.1632 C   0  0  0  0  0  0  0  0  0  0  0  0
   17.6158  -27.8901   -4.0646 C   0  0  0  0  0  0  0  0  0  0  0  0
   17.6943  -26.9848   -5.1267 C   0  0  0  0  0  0  0  0  0  0  0  0
   17.2415  -25.8195   -4.6784 N   0  0  0  0  0  0  0  0  0  0  0  0
   16.8738  -25.9098   -3.3925 C   0  0  0  0  0  0  0  0  0  0  0  0
   16.3598  -25.0060   -2.5112 C   0  0  0  0  0  0  0  0  0  0  0  0
   16.0724  -25.3989   -1.2181 C   0  0  0  0  0  0  0  0  0  0  0  0
   16.2998  -26.6962   -0.8094 C   0  0  0  0  0  0  0  0  0  0  0  0
   16.8222  -27.6100   -1.7102 C   0  0  0  0  0  0  0  0  0  0  0  0
   17.1043  -27.2103   -2.9919 C   0  0  0  0  0  0  0  0  0  0  0  0
   18.9604  -31.0396   -5.6405 C   0  0  0  0  0  0  0  0  0  0  0  0
   18.3256  -32.1288   -5.5655 O   0  0  0  0  0  0  0  0  0  0  0  0
   21.8931  -30.7374  -10.9765 N   0  0  0  0  0  0  0  0  0  0  0  0
   22.0287  -32.0845  -11.4217 C   0  0  0  0  0  0  0  0  0  0  0  0
   21.5684  -32.4992  -12.5389 N   0  0  0  0  0  0  0  0  0  0  0  0
   22.7142  -32.9958  -10.5625 N   0  0  0  0  0  0  0  0  0  0  0  0
   23.0214  -32.6502   -9.2050 C   0  0  0  0  0  0  0  0  0  0  0  0
   21.7894  -32.8363   -8.3081 C   0  0  0  0  0  0  0  0  0  0  0  0
   22.1884  -32.3284   -6.9447 C   0  0  0  0  0  0  0  0  0  0  0  0
   21.0419  -32.4345   -5.9348 C   0  0  2  0  0  0  0  0  0  0  0  0
   20.3758  -31.1597   -5.7687 N   0  0  0  0  0  0  0  0  0  0  0  0
   21.7003  -32.7687   -4.6490 C   0  0  0  0  0  0  0  0  0  0  0  0
   22.4323  -31.8925   -4.1388 O   0  0  0  0  0  0  0  0  0  0  0  0
   21.6086  -33.4671  -12.8696 C   0  0  0  0  0  0  0  0  0  0  0  0
   21.8307  -35.6047   -2.2352 C   0  0  1  0  0  0  0  0  0  0  0  0
   22.2805  -34.2430   -2.7755 N   0  0  0  0  0  0  0  0  0  0  0  0
   21.5453  -34.0112   -3.9772 C   0  0  0  0  0  0  0  0  0  0  0  0
   23.7310  -34.2587   -2.9471 O   0  0  0  0  0  0  0  0  0  0  0  0
   24.5627  -33.8997   -1.9062 O   0  0  0  0  0  0  0  0  0  0  0  0
  2 13  1  0
  2  1  1  6
  3  2  1  0
  4  3  1  0
  4  5  2  0
  6  5  1  0
  7 12  2  0
  7  6  1  0
  8  7  1  0
  9 10  1  0
  9  8  2  0
 10 11  2  0
 11 12  1  0
 12  4  1  0
 13 14  2  0
 16 17  2  0
 16 15  1  0
 18 16  1  0
 19 20  1  0
 19 18  1  0
 20 21  1  0
 22 21  1  6
 23 22  1  0
 23 13  1  0
 24 25  2  0
 24 22  1  0
 27 26  1  1
 27 29  1  0
 27 28  1  0
 28 24  1  0
 29 30  1  0
 31 29  2  0
M  END
$$$$
