WRA.pdb
     RDKit          3D

 31 32  0  0  1  0  0  0  0  0999 V2000
   28.4938  -21.8112  -12.8805 N   0  0  0  0  0  0  0  0  0  0  0  0
   27.3044  -21.5009  -12.1615 C   0  0  1  0  0  0  0  0  0  0  0  0
   27.4737  -20.3281  -11.2273 C   0  0  0  0  0  0  0  0  0  0  0  0
   28.4099  -20.6413  -10.1181 C   0  0  0  0  0  0  0  0  0  0  0  0
   29.6893  -21.1706  -10.3101 C   0  0  0  0  0  0  0  0  0  0  0  0
   30.2336  -21.3180   -9.1076 N   0  0  0  0  0  0  0  0  0  0  0  0
   29.3892  -20.9182   -8.1462 C   0  0  0  0  0  0  0  0  0  0  0  0
   29.4872  -20.8756   -6.7874 C   0  0  0  0  0  0  0  0  0  0  0  0
   28.4263  -20.4016   -6.0397 C   0  0  0  0  0  0  0  0  0  0  0  0
   27.2691  -19.9707   -6.6536 C   0  0  0  0  0  0  0  0  0  0  0  0
   27.1761  -20.0165   -8.0352 C   0  0  0  0  0  0  0  0  0  0  0  0
   28.2347  -20.4888   -8.7688 C   0  0  0  0  0  0  0  0  0  0  0  0
   26.1404  -21.2726  -13.0603 C   0  0  0  0  0  0  0  0  0  0  0  0
   26.1988  -20.4465  -14.0138 O   0  0  0  0  0  0  0  0  0  0  0  0
   26.2523  -26.1907  -15.9159 N   0  0  0  0  0  0  0  0  0  0  0  0
   25.7674  -25.9323  -17.2309 C   0  0  0  0  0  0  0  0  0  0  0  0
   26.3773  -26.3141  -18.2865 N   0  0  0  0  0  0  0  0  0  0  0  0
   24.5410  -25.2109  -17.3502 N   0  0  0  0  0  0  0  0  0  0  0  0
   23.7895  -24.8245  -16.1915 C   0  0  0  0  0  0  0  0  0  0  0  0
   24.3808  -23.5548  -15.5629 C   0  0  0  0  0  0  0  0  0  0  0  0
   23.4189  -23.1436  -14.4758 C   0  0  0  0  0  0  0  0  0  0  0  0
   23.8024  -21.8001  -13.8484 C   0  0  2  0  0  0  0  0  0  0  0  0
   24.8972  -21.9564  -12.9139 N   0  0  0  0  0  0  0  0  0  0  0  0
   22.6063  -21.3888  -13.0749 C   0  0  0  0  0  0  0  0  0  0  0  0
   22.3786  -22.0014  -12.0086 O   0  0  0  0  0  0  0  0  0  0  0  0
   26.0597  -26.1435  -19.2445 C   0  0  0  0  0  0  0  0  0  0  0  0
   20.0513  -18.6908  -13.1445 C   0  0  1  0  0  0  0  0  0  0  0  0
   20.6265  -20.0118  -12.6224 N   0  0  0  0  0  0  0  0  0  0  0  0
   21.7202  -20.3523  -13.4747 C   0  0  0  0  0  0  0  0  0  0  0  0
   19.5592  -21.0080  -12.5804 O   0  0  0  0  0  0  0  0  0  0  0  0
   18.6084  -20.9732  -11.5810 O   0  0  0  0  0  0  0  0  0  0  0  0
  2 13  1  0
  2  1  1  6
  3  2  1  0
  4  3  1  0
  4  5  2  0
  6  5  1  0
  7 12  2  0
  7  6  1  0
  8  7  1  0
  9 10  1  0
  9  8  2  0
 10 11  2  0
 11 12  1  0
 12  4  1  0
 13 14  2  0
 16 17  2  0
 16 15  1  0
 18 16  1  0
 19 20  1  0
 19 18  1  0
 20 21  1  0
 22 21  1  1
 23 22  1  0
 23 13  1  0
 24 25  2  0
 24 22  1  0
 27 26  1  1
 27 29  1  0
 27 28  1  0
 28 24  1  0
 29 30  1  0
 31 29  2  0
M  END
$$$$
