LIQ.pdb
     RDKit          3D

 26 25  0  0  1  0  0  0  0  0999 V2000
    2.6559  -19.9788   22.2617 C   0  0  0  0  0  0  0  0  0  0  0  0
    3.3177  -19.3122   21.0566 C   0  0  1  0  0  0  0  0  0  0  0  0
    2.3704  -18.2666   20.5438 C   0  0  0  0  0  0  0  0  0  0  0  0
    4.6850  -18.7906   21.4048 C   0  0  0  0  0  0  0  0  0  0  0  0
    5.2538  -18.1028   20.1898 C   0  0  2  0  0  0  0  0  0  0  0  0
    5.3726  -19.0396   19.1185 N   0  0  0  0  0  0  0  0  0  0  0  0
    6.5815  -17.4969   20.4663 C   0  0  0  0  0  0  0  0  0  0  0  0
    7.5996  -18.1895   20.2272 O   0  0  0  0  0  0  0  0  0  0  0  0
    7.2071  -12.0385   20.2884 C   0  0  0  0  0  0  0  0  0  0  0  0
    7.6275  -13.4862   20.1493 C   0  0  0  0  0  0  0  0  0  0  0  0
    7.8080  -14.1192   21.5368 C   0  0  2  0  0  0  0  0  0  0  0  0
    8.9883  -13.4126   22.1616 C   0  0  0  0  0  0  0  0  0  0  0  0
    7.9624  -15.6015   21.4182 C   0  0  2  0  0  0  0  0  0  0  0  0
    6.6721  -16.1803   20.9823 N   0  0  0  0  0  0  0  0  0  0  0  0
    8.3868  -16.2718   22.6619 C   0  0  0  0  0  0  0  0  0  0  0  0
    7.5977  -16.3011   23.6720 O   0  0  0  0  0  0  0  0  0  0  0  0
    9.5782  -21.1283   26.4010 N   0  0  0  0  0  0  0  0  0  0  0  0
   10.0945  -20.8792   25.1045 C   0  0  0  0  0  0  0  0  0  0  0  0
    9.8163  -21.6091   24.1321 O   0  0  0  0  0  0  0  0  0  0  0  0
   11.0095  -19.6878   24.9114 C   0  0  0  0  0  0  0  0  0  0  0  0
   10.5553  -18.9670   23.6832 C   0  0  0  0  0  0  0  0  0  0  0  0
   10.0080  -17.6132   24.0174 C   0  0  2  0  0  0  0  0  0  0  0  0
    9.6399  -16.8974   22.7857 N   0  0  0  0  0  0  0  0  0  0  0  0
   11.0140  -16.8365   24.7482 C   0  0  0  0  0  0  0  0  0  0  0  0
   11.8008  -15.9981   24.2148 O   0  0  0  0  0  0  0  0  0  0  0  0
   11.1145  -17.0333   26.1418 O   0  0  0  0  0  0  0  0  0  0  0  0
  2  3  1  1
  2  1  1  0
  4  2  1  0
  4  5  1  0
  5  6  1  6
  7  5  1  0
  7  8  2  0
  9 10  1  0
 10 11  1  0
 11 13  1  0
 11 12  1  6
 13 14  1  1
 14  7  1  0
 15 16  2  0
 15 13  1  0
 17 18  1  0
 18 19  2  0
 20 18  1  0
 20 21  1  0
 22 21  1  6
 22 24  1  0
 22 23  1  0
 23 15  1  0
 24 26  1  0
 25 24  2  0
M  END
$$$$
