LIQ.pdb
     RDKit          3D

 26 25  0  0  1  0  0  0  0  0999 V2000
    6.3004  -17.0409   19.1686 C   0  0  0  0  0  0  0  0  0  0  0  0
    6.8469  -15.6610   19.5320 C   0  0  1  0  0  0  0  0  0  0  0  0
    5.7696  -14.6580   19.2370 C   0  0  0  0  0  0  0  0  0  0  0  0
    7.3498  -15.6298   20.9494 C   0  0  0  0  0  0  0  0  0  0  0  0
    7.7577  -14.2159   21.2768 C   0  0  2  0  0  0  0  0  0  0  0  0
    8.6877  -13.7454   20.3006 N   0  0  0  0  0  0  0  0  0  0  0  0
    8.3650  -14.1128   22.6285 C   0  0  0  0  0  0  0  0  0  0  0  0
    9.6118  -14.2193   22.7170 O   0  0  0  0  0  0  0  0  0  0  0  0
    5.8480  -11.1717   26.4692 C   0  0  0  0  0  0  0  0  0  0  0  0
    6.9858  -11.7955   25.6892 C   0  0  0  0  0  0  0  0  0  0  0  0
    7.1331  -13.2773   26.0643 C   0  0  2  0  0  0  0  0  0  0  0  0
    7.5432  -13.2953   27.5183 C   0  0  0  0  0  0  0  0  0  0  0  0
    8.0914  -13.9569   25.1396 C   0  0  2  0  0  0  0  0  0  0  0  0
    7.5459  -13.9014   23.7652 N   0  0  0  0  0  0  0  0  0  0  0  0
    8.3743  -15.3639   25.4811 C   0  0  0  0  0  0  0  0  0  0  0  0
    7.4622  -16.2524   25.3316 O   0  0  0  0  0  0  0  0  0  0  0  0
   12.9025  -18.3971   23.5275 N   0  0  0  0  0  0  0  0  0  0  0  0
   12.4687  -19.4072   24.4225 C   0  0  0  0  0  0  0  0  0  0  0  0
   12.9776  -20.5460   24.4289 O   0  0  0  0  0  0  0  0  0  0  0  0
   11.3537  -19.0778   25.3931 C   0  0  0  0  0  0  0  0  0  0  0  0
   10.9972  -17.6396   25.1966 C   0  0  0  0  0  0  0  0  0  0  0  0
    9.9279  -17.2080   26.1527 C   0  0  2  0  0  0  0  0  0  0  0  0
    9.6271  -15.7799   25.9655 N   0  0  0  0  0  0  0  0  0  0  0  0
   10.3724  -17.4340   27.5313 C   0  0  0  0  0  0  0  0  0  0  0  0
   10.6752  -16.5134   28.3482 O   0  0  0  0  0  0  0  0  0  0  0  0
   10.4697  -18.7673   27.9826 O   0  0  0  0  0  0  0  0  0  0  0  0
  2  3  1  1
  2  1  1  0
  4  2  1  0
  4  5  1  0
  5  6  1  6
  7  5  1  0
  7  8  2  0
  9 10  1  0
 10 11  1  0
 11 13  1  0
 11 12  1  1
 13 14  1  6
 14  7  1  0
 15 16  2  0
 15 13  1  0
 17 18  1  0
 18 19  2  0
 20 18  1  0
 20 21  1  0
 22 21  1  6
 22 24  1  0
 22 23  1  0
 23 15  1  0
 24 26  1  0
 25 24  2  0
M  END
$$$$
