LIQ.pdb
     RDKit          3D

 26 25  0  0  1  0  0  0  0  0999 V2000
    7.7873  -21.7645   17.8994 C   0  0  0  0  0  0  0  0  0  0  0  0
    7.8514  -20.3633   17.2933 C   0  0  1  0  0  0  0  0  0  0  0  0
    6.4408  -19.9191   17.0358 C   0  0  0  0  0  0  0  0  0  0  0  0
    8.6451  -19.4284   18.1644 C   0  0  0  0  0  0  0  0  0  0  0  0
    8.6101  -18.0558   17.5420 C   0  0  2  0  0  0  0  0  0  0  0  0
    9.3062  -18.0753   16.2952 N   0  0  0  0  0  0  0  0  0  0  0  0
    9.2138  -17.0289   18.4294 C   0  0  0  0  0  0  0  0  0  0  0  0
   10.4524  -16.8465   18.3516 O   0  0  0  0  0  0  0  0  0  0  0  0
    6.2252  -12.7080   19.9469 C   0  0  0  0  0  0  0  0  0  0  0  0
    7.4219  -13.5412   19.5399 C   0  0  0  0  0  0  0  0  0  0  0  0
    7.9060  -14.3855   20.7278 C   0  0  2  0  0  0  0  0  0  0  0  0
    8.3329  -13.3977   21.7883 C   0  0  0  0  0  0  0  0  0  0  0  0
    8.9779  -15.3325   20.2926 C   0  0  2  0  0  0  0  0  0  0  0  0
    8.4003  -16.2921   19.3255 N   0  0  0  0  0  0  0  0  0  0  0  0
    9.6072  -16.0882   21.3923 C   0  0  0  0  0  0  0  0  0  0  0  0
    8.9713  -17.0519   21.9496 O   0  0  0  0  0  0  0  0  0  0  0  0
   15.8320  -16.3592   24.9830 N   0  0  0  0  0  0  0  0  0  0  0  0
   15.2011  -16.9004   23.8347 C   0  0  0  0  0  0  0  0  0  0  0  0
   15.8281  -17.1190   22.7788 O   0  0  0  0  0  0  0  0  0  0  0  0
   13.7219  -17.2168   23.9086 C   0  0  0  0  0  0  0  0  0  0  0  0
   13.0346  -16.3987   22.8634 C   0  0  0  0  0  0  0  0  0  0  0  0
   11.5594  -16.6585   22.8512 C   0  0  2  0  0  0  0  0  0  0  0  0
   10.9010  -15.7952   21.8582 N   0  0  0  0  0  0  0  0  0  0  0  0
   10.9961  -16.3899   24.1778 C   0  0  0  0  0  0  0  0  0  0  0  0
   10.4672  -15.2914   24.5244 O   0  0  0  0  0  0  0  0  0  0  0  0
   11.0436  -17.4244   25.1362 O   0  0  0  0  0  0  0  0  0  0  0  0
  2  3  1  1
  2  1  1  0
  4  2  1  0
  4  5  1  0
  5  6  1  6
  7  5  1  0
  7  8  2  0
  9 10  1  0
 10 11  1  0
 11 13  1  0
 11 12  1  1
 13 14  1  6
 14  7  1  0
 15 16  2  0
 15 13  1  0
 17 18  1  0
 18 19  2  0
 20 18  1  0
 20 21  1  0
 22 21  1  1
 22 24  1  0
 22 23  1  0
 23 15  1  0
 24 26  1  0
 25 24  2  0
M  END
$$$$
