LIQ.pdb
     RDKit          3D

 26 25  0  0  1  0  0  0  0  0999 V2000
    5.5416  -16.4887   19.9428 C   0  0  0  0  0  0  0  0  0  0  0  0
    6.9720  -16.4279   20.4765 C   0  0  1  0  0  0  0  0  0  0  0  0
    7.6276  -17.7402   20.1577 C   0  0  0  0  0  0  0  0  0  0  0  0
    7.7023  -15.2259   19.9429 C   0  0  0  0  0  0  0  0  0  0  0  0
    7.3086  -14.0271   20.7678 C   0  0  2  0  0  0  0  0  0  0  0  0
    7.5029  -12.8347   20.0064 N   0  0  0  0  0  0  0  0  0  0  0  0
    8.0889  -13.9412   22.0289 C   0  0  0  0  0  0  0  0  0  0  0  0
    9.3050  -13.6458   21.9430 O   0  0  0  0  0  0  0  0  0  0  0  0
    5.7546  -11.5880   26.1157 C   0  0  0  0  0  0  0  0  0  0  0  0
    6.8343  -12.0842   25.1776 C   0  0  0  0  0  0  0  0  0  0  0  0
    7.2793  -13.4965   25.5847 C   0  0  2  0  0  0  0  0  0  0  0  0
    7.8887  -13.3560   26.9601 C   0  0  0  0  0  0  0  0  0  0  0  0
    8.1967  -14.0721   24.5540 C   0  0  2  0  0  0  0  0  0  0  0  0
    7.4614  -14.1882   23.2751 N   0  0  0  0  0  0  0  0  0  0  0  0
    8.7533  -15.3930   24.9027 C   0  0  0  0  0  0  0  0  0  0  0  0
    7.9655  -16.3840   25.1048 O   0  0  0  0  0  0  0  0  0  0  0  0
   13.6699  -17.9226   22.4711 N   0  0  0  0  0  0  0  0  0  0  0  0
   13.1124  -18.8690   23.3672 C   0  0  0  0  0  0  0  0  0  0  0  0
   12.9819  -20.0710   23.0603 O   0  0  0  0  0  0  0  0  0  0  0  0
   12.6670  -18.3905   24.7334 C   0  0  0  0  0  0  0  0  0  0  0  0
   12.0613  -17.0352   24.5593 C   0  0  0  0  0  0  0  0  0  0  0  0
   10.6749  -16.9816   25.1240 C   0  0  2  0  0  0  0  0  0  0  0  0
   10.1368  -15.6163   25.0176 N   0  0  0  0  0  0  0  0  0  0  0  0
   10.6957  -17.3869   26.5328 C   0  0  0  0  0  0  0  0  0  0  0  0
   10.4548  -16.6121   27.5066 O   0  0  0  0  0  0  0  0  0  0  0  0
   11.0038  -18.7319   26.8276 O   0  0  0  0  0  0  0  0  0  0  0  0
  2  3  1  6
  2  1  1  0
  4  2  1  0
  4  5  1  0
  5  6  1  6
  7  5  1  0
  7  8  2  0
  9 10  1  0
 10 11  1  0
 11 13  1  0
 11 12  1  1
 13 14  1  6
 14  7  1  0
 15 16  2  0
 15 13  1  0
 17 18  1  0
 18 19  2  0
 20 18  1  0
 20 21  1  0
 22 21  1  1
 22 24  1  0
 22 23  1  0
 23 15  1  0
 24 26  1  0
 25 24  2  0
M  END
$$$$
