LIQ.pdb
     RDKit          3D

 26 25  0  0  1  0  0  0  0  0999 V2000
    7.6354  -12.1515   18.3709 C   0  0  0  0  0  0  0  0  0  0  0  0
    7.5784  -13.4431   19.1854 C   0  0  1  0  0  0  0  0  0  0  0  0
    8.2858  -14.5054   18.3951 C   0  0  0  0  0  0  0  0  0  0  0  0
    8.1237  -13.2376   20.5722 C   0  0  0  0  0  0  0  0  0  0  0  0
    8.0572  -14.5519   21.3075 C   0  0  2  0  0  0  0  0  0  0  0  0
    6.6979  -14.9772   21.4104 N   0  0  0  0  0  0  0  0  0  0  0  0
    8.6500  -14.4578   22.6662 C   0  0  0  0  0  0  0  0  0  0  0  0
    9.8916  -14.3000   22.7510 O   0  0  0  0  0  0  0  0  0  0  0  0
    5.9877  -11.6272   26.1479 C   0  0  0  0  0  0  0  0  0  0  0  0
    7.1458  -12.2907   25.4334 C   0  0  0  0  0  0  0  0  0  0  0  0
    7.4102  -13.6796   26.0329 C   0  0  2  0  0  0  0  0  0  0  0  0
    7.8772  -13.4350   27.4488 C   0  0  0  0  0  0  0  0  0  0  0  0
    8.3763  -14.4399   25.1822 C   0  0  2  0  0  0  0  0  0  0  0  0
    7.8234  -14.5458   23.8137 N   0  0  0  0  0  0  0  0  0  0  0  0
    8.6866  -15.7955   25.6746 C   0  0  0  0  0  0  0  0  0  0  0  0
    7.7535  -16.6699   25.7664 O   0  0  0  0  0  0  0  0  0  0  0  0
   13.7923  -21.0255   25.6406 N   0  0  0  0  0  0  0  0  0  0  0  0
   13.2429  -19.7332   25.4468 C   0  0  0  0  0  0  0  0  0  0  0  0
   13.7840  -18.8910   24.7025 O   0  0  0  0  0  0  0  0  0  0  0  0
   11.9609  -19.3804   26.1720 C   0  0  0  0  0  0  0  0  0  0  0  0
   11.5522  -18.0144   25.7235 C   0  0  0  0  0  0  0  0  0  0  0  0
   10.2920  -17.5727   26.4022 C   0  0  2  0  0  0  0  0  0  0  0  0
    9.9875  -16.1777   26.0471 N   0  0  0  0  0  0  0  0  0  0  0  0
   10.4456  -17.6814   27.8561 C   0  0  0  0  0  0  0  0  0  0  0  0
   10.5893  -16.6948   28.6387 O   0  0  0  0  0  0  0  0  0  0  0  0
   10.4317  -18.9721   28.4261 O   0  0  0  0  0  0  0  0  0  0  0  0
  2  3  1  6
  2  1  1  0
  4  2  1  0
  4  5  1  0
  5  6  1  1
  7  5  1  0
  7  8  2  0
  9 10  1  0
 10 11  1  0
 11 13  1  0
 11 12  1  1
 13 14  1  6
 14  7  1  0
 15 16  2  0
 15 13  1  0
 17 18  1  0
 18 19  2  0
 20 18  1  0
 20 21  1  0
 22 21  1  6
 22 24  1  0
 22 23  1  0
 23 15  1  0
 24 26  1  0
 25 24  2  0
M  END
$$$$
