LIQ.pdb
     RDKit          3D

 26 25  0  0  1  0  0  0  0  0999 V2000
    5.9323  -18.5441   19.9502 C   0  0  0  0  0  0  0  0  0  0  0  0
    6.2102  -17.0461   20.0657 C   0  0  1  0  0  0  0  0  0  0  0  0
    4.8892  -16.3364   19.9971 C   0  0  0  0  0  0  0  0  0  0  0  0
    7.0164  -16.7346   21.2970 C   0  0  0  0  0  0  0  0  0  0  0  0
    7.2082  -15.2413   21.3730 C   0  0  2  0  0  0  0  0  0  0  0  0
    7.8341  -14.7754   20.1769 N   0  0  0  0  0  0  0  0  0  0  0  0
    8.0288  -14.8466   22.5465 C   0  0  0  0  0  0  0  0  0  0  0  0
    9.2748  -14.8198   22.4041 O   0  0  0  0  0  0  0  0  0  0  0  0
    5.9277  -11.3777   26.0841 C   0  0  0  0  0  0  0  0  0  0  0  0
    6.9802  -12.0890   25.2605 C   0  0  0  0  0  0  0  0  0  0  0  0
    7.3648  -13.4172   25.9286 C   0  0  2  0  0  0  0  0  0  0  0  0
    8.0543  -13.0441   27.2202 C   0  0  0  0  0  0  0  0  0  0  0  0
    8.1909  -14.2484   25.0003 C   0  0  2  0  0  0  0  0  0  0  0  0
    7.4053  -14.5157   23.7751 N   0  0  0  0  0  0  0  0  0  0  0  0
    8.6374  -15.5349   25.5676 C   0  0  0  0  0  0  0  0  0  0  0  0
    7.7823  -16.4628   25.7948 O   0  0  0  0  0  0  0  0  0  0  0  0
   14.3390  -20.1228   25.5038 N   0  0  0  0  0  0  0  0  0  0  0  0
   13.4770  -19.0808   25.0789 C   0  0  0  0  0  0  0  0  0  0  0  0
   13.7408  -18.3683   24.0896 O   0  0  0  0  0  0  0  0  0  0  0  0
   12.2021  -18.8385   25.8599 C   0  0  0  0  0  0  0  0  0  0  0  0
   11.6902  -17.4876   25.4766 C   0  0  0  0  0  0  0  0  0  0  0  0
   10.4350  -17.1494   26.2209 C   0  0  2  0  0  0  0  0  0  0  0  0
    9.9864  -15.7933   25.8681 N   0  0  0  0  0  0  0  0  0  0  0  0
   10.6786  -17.2201   27.6648 C   0  0  0  0  0  0  0  0  0  0  0  0
   10.7043  -16.2166   28.4387 O   0  0  0  0  0  0  0  0  0  0  0  0
   10.8988  -18.4919   28.2350 O   0  0  0  0  0  0  0  0  0  0  0  0
  2  3  1  1
  2  1  1  0
  4  2  1  0
  4  5  1  0
  5  6  1  6
  7  5  1  0
  7  8  2  0
  9 10  1  0
 10 11  1  0
 11 13  1  0
 11 12  1  1
 13 14  1  6
 14  7  1  0
 15 16  2  0
 15 13  1  0
 17 18  1  0
 18 19  2  0
 20 18  1  0
 20 21  1  0
 22 21  1  6
 22 24  1  0
 22 23  1  0
 23 15  1  0
 24 26  1  0
 25 24  2  0
M  END
$$$$
