LIQ.pdb
     RDKit          3D

 26 25  0  0  1  0  0  0  0  0999 V2000
    4.8927  -19.7734   21.5741 C   0  0  0  0  0  0  0  0  0  0  0  0
    5.0810  -18.2663   21.4067 C   0  0  1  0  0  0  0  0  0  0  0  0
    3.7163  -17.6413   21.3884 C   0  0  0  0  0  0  0  0  0  0  0  0
    6.0012  -17.7117   22.4595 C   0  0  0  0  0  0  0  0  0  0  0  0
    6.1615  -16.2323   22.2177 C   0  0  2  0  0  0  0  0  0  0  0  0
    6.5924  -16.0086   20.8747 N   0  0  0  0  0  0  0  0  0  0  0  0
    7.1343  -15.6189   23.1579 C   0  0  0  0  0  0  0  0  0  0  0  0
    8.3362  -15.5681   22.8022 O   0  0  0  0  0  0  0  0  0  0  0  0
    7.3877  -11.4859   25.1568 C   0  0  0  0  0  0  0  0  0  0  0  0
    6.3263  -12.5097   25.4993 C   0  0  0  0  0  0  0  0  0  0  0  0
    6.9410  -13.6535   26.3192 C   0  0  2  0  0  0  0  0  0  0  0  0
    7.8197  -12.9918   27.3550 C   0  0  0  0  0  0  0  0  0  0  0  0
    7.6531  -14.6144   25.4222 C   0  0  2  0  0  0  0  0  0  0  0  0
    6.6983  -15.1147   24.4083 N   0  0  0  0  0  0  0  0  0  0  0  0
    8.2533  -15.7682   26.1185 C   0  0  0  0  0  0  0  0  0  0  0  0
    7.5009  -16.6020   26.7369 O   0  0  0  0  0  0  0  0  0  0  0  0
   12.8302  -21.0820   25.8173 N   0  0  0  0  0  0  0  0  0  0  0  0
   12.4074  -19.7721   25.4782 C   0  0  0  0  0  0  0  0  0  0  0  0
   12.2724  -19.4085   24.2927 O   0  0  0  0  0  0  0  0  0  0  0  0
   12.1150  -18.7977   26.6002 C   0  0  0  0  0  0  0  0  0  0  0  0
   11.4790  -17.5896   25.9917 C   0  0  0  0  0  0  0  0  0  0  0  0
   10.1945  -17.2448   26.6810 C   0  0  2  0  0  0  0  0  0  0  0  0
    9.6401  -15.9999   26.1263 N   0  0  0  0  0  0  0  0  0  0  0  0
   10.4314  -17.0731   28.1176 C   0  0  0  0  0  0  0  0  0  0  0  0
   10.7074  -18.0166   28.9177 O   0  0  0  0  0  0  0  0  0  0  0  0
   10.3481  -15.7684   28.6484 O   0  0  0  0  0  0  0  0  0  0  0  0
  2  3  1  1
  2  1  1  0
  4  2  1  0
  4  5  1  0
  5  6  1  6
  7  5  1  0
  7  8  2  0
  9 10  1  0
 10 11  1  0
 11 13  1  0
 11 12  1  1
 13 14  1  6
 14  7  1  0
 15 16  2  0
 15 13  1  0
 17 18  1  0
 18 19  2  0
 20 18  1  0
 20 21  1  0
 22 21  1  6
 22 24  1  0
 22 23  1  0
 23 15  1  0
 24 26  1  0
 25 24  2  0
M  END
$$$$
