LIQ.pdb
     RDKit          3D

 26 25  0  0  1  0  0  0  0  0999 V2000
    7.5557  -21.7849   18.9709 C   0  0  0  0  0  0  0  0  0  0  0  0
    7.5544  -20.4398   18.2459 C   0  0  1  0  0  0  0  0  0  0  0  0
    6.1226  -20.0652   17.9945 C   0  0  0  0  0  0  0  0  0  0  0  0
    8.3387  -19.4082   19.0097 C   0  0  0  0  0  0  0  0  0  0  0  0
    8.3568  -18.1341   18.2040 C   0  0  2  0  0  0  0  0  0  0  0  0
    8.9845  -18.3712   16.9434 N   0  0  0  0  0  0  0  0  0  0  0  0
    9.0687  -17.0398   18.9128 C   0  0  0  0  0  0  0  0  0  0  0  0
   10.2396  -16.7748   18.5493 O   0  0  0  0  0  0  0  0  0  0  0  0
    6.5269  -12.5088   19.4831 C   0  0  0  0  0  0  0  0  0  0  0  0
    7.7347  -13.4158   19.3812 C   0  0  0  0  0  0  0  0  0  0  0  0
    8.0112  -14.0813   20.7373 C   0  0  2  0  0  0  0  0  0  0  0  0
    8.3884  -12.9600   21.6771 C   0  0  0  0  0  0  0  0  0  0  0  0
    9.0491  -15.1477   20.5935 C   0  0  2  0  0  0  0  0  0  0  0  0
    8.4285  -16.3326   19.9605 N   0  0  0  0  0  0  0  0  0  0  0  0
    9.6773  -15.5622   21.8622 C   0  0  0  0  0  0  0  0  0  0  0  0
   10.3614  -14.7169   22.5413 O   0  0  0  0  0  0  0  0  0  0  0  0
   11.9683  -20.2599   26.1130 N   0  0  0  0  0  0  0  0  0  0  0  0
   11.2063  -20.1349   24.9243 C   0  0  0  0  0  0  0  0  0  0  0  0
   10.0206  -20.5164   24.8574 O   0  0  0  0  0  0  0  0  0  0  0  0
   11.8659  -19.5178   23.7086 C   0  0  0  0  0  0  0  0  0  0  0  0
   10.7880  -18.9002   22.8774 C   0  0  0  0  0  0  0  0  0  0  0  0
   10.5990  -17.4538   23.2178 C   0  0  2  0  0  0  0  0  0  0  0  0
    9.5489  -16.8669   22.3706 N   0  0  0  0  0  0  0  0  0  0  0  0
   11.8543  -16.7257   23.0096 C   0  0  0  0  0  0  0  0  0  0  0  0
   12.5327  -16.7552   21.9394 O   0  0  0  0  0  0  0  0  0  0  0  0
   12.3425  -15.9359   24.0721 O   0  0  0  0  0  0  0  0  0  0  0  0
  2  3  1  1
  2  1  1  0
  4  2  1  0
  4  5  1  0
  5  6  1  6
  7  5  1  0
  7  8  2  0
  9 10  1  0
 10 11  1  0
 11 13  1  0
 11 12  1  1
 13 14  1  1
 14  7  1  0
 15 16  2  0
 15 13  1  0
 17 18  1  0
 18 19  2  0
 20 18  1  0
 20 21  1  0
 22 21  1  6
 22 24  1  0
 22 23  1  0
 23 15  1  0
 24 26  1  0
 25 24  2  0
M  END
$$$$
