LIQ.pdb
     RDKit          3D

 26 25  0  0  1  0  0  0  0  0999 V2000
    6.5927  -15.4066   18.2281 C   0  0  0  0  0  0  0  0  0  0  0  0
    7.3910  -14.2977   18.9121 C   0  0  1  0  0  0  0  0  0  0  0  0
    6.6218  -13.0197   18.7437 C   0  0  0  0  0  0  0  0  0  0  0  0
    7.6992  -14.6504   20.3417 C   0  0  0  0  0  0  0  0  0  0  0  0
    8.3662  -13.4638   20.9896 C   0  0  2  0  0  0  0  0  0  0  0  0
    9.5395  -13.1117   20.2556 N   0  0  0  0  0  0  0  0  0  0  0  0
    8.7306  -13.7362   22.4036 C   0  0  0  0  0  0  0  0  0  0  0  0
    9.8882  -14.1598   22.6361 O   0  0  0  0  0  0  0  0  0  0  0  0
    5.7857  -11.0920   26.2146 C   0  0  0  0  0  0  0  0  0  0  0  0
    6.9825  -11.6735   25.4925 C   0  0  0  0  0  0  0  0  0  0  0  0
    7.0487  -13.1912   25.7174 C   0  0  2  0  0  0  0  0  0  0  0  0
    7.2615  -13.3787   27.2014 C   0  0  0  0  0  0  0  0  0  0  0  0
    8.1074  -13.8008   24.8556 C   0  0  2  0  0  0  0  0  0  0  0  0
    7.7879  -13.5181   23.4387 N   0  0  0  0  0  0  0  0  0  0  0  0
    8.2668  -15.2577   25.0243 C   0  0  0  0  0  0  0  0  0  0  0  0
    7.3044  -16.0450   24.7119 O   0  0  0  0  0  0  0  0  0  0  0  0
   12.8964  -20.7048   23.9207 N   0  0  0  0  0  0  0  0  0  0  0  0
   12.4631  -19.3643   24.0789 C   0  0  0  0  0  0  0  0  0  0  0  0
   13.1151  -18.4023   23.6259 O   0  0  0  0  0  0  0  0  0  0  0  0
   11.1683  -19.1100   24.8224 C   0  0  0  0  0  0  0  0  0  0  0  0
   10.9088  -17.6386   24.7825 C   0  0  0  0  0  0  0  0  0  0  0  0
    9.6474  -17.2881   25.5104 C   0  0  2  0  0  0  0  0  0  0  0  0
    9.4538  -15.8295   25.5153 N   0  0  0  0  0  0  0  0  0  0  0  0
    9.7193  -17.7730   26.8921 C   0  0  0  0  0  0  0  0  0  0  0  0
    9.8394  -17.0269   27.9097 O   0  0  0  0  0  0  0  0  0  0  0  0
    9.6491  -19.1658   27.1066 O   0  0  0  0  0  0  0  0  0  0  0  0
  2  3  1  1
  2  1  1  0
  4  2  1  0
  4  5  1  0
  5  6  1  6
  7  5  1  0
  7  8  2  0
  9 10  1  0
 10 11  1  0
 11 13  1  0
 11 12  1  1
 13 14  1  6
 14  7  1  0
 15 16  2  0
 15 13  1  0
 17 18  1  0
 18 19  2  0
 20 18  1  0
 20 21  1  0
 22 21  1  6
 22 24  1  0
 22 23  1  0
 23 15  1  0
 24 26  1  0
 25 24  2  0
M  END
$$$$
