LIQ.pdb
     RDKit          3D

 26 25  0  0  1  0  0  0  0  0999 V2000
    7.5309  -12.1124   27.8879 C   0  0  0  0  0  0  0  0  0  0  0  0
    6.6554  -13.0409   27.0475 C   0  0  1  0  0  0  0  0  0  0  0  0
    5.8008  -12.1778   26.1654 C   0  0  0  0  0  0  0  0  0  0  0  0
    7.4875  -14.0510   26.3057 C   0  0  0  0  0  0  0  0  0  0  0  0
    6.5868  -14.8053   25.3610 C   0  0  2  0  0  0  0  0  0  0  0  0
    5.8686  -15.8088   26.0797 N   0  0  0  0  0  0  0  0  0  0  0  0
    7.3495  -15.4395   24.2552 C   0  0  0  0  0  0  0  0  0  0  0  0
    7.6040  -16.6641   24.3499 O   0  0  0  0  0  0  0  0  0  0  0  0
    7.2853  -12.4038   19.9888 C   0  0  0  0  0  0  0  0  0  0  0  0
    7.2438  -13.8161   20.5324 C   0  0  0  0  0  0  0  0  0  0  0  0
    8.6560  -14.2710   20.9287 C   0  0  2  0  0  0  0  0  0  0  0  0
    9.2843  -14.8116   19.6655 C   0  0  0  0  0  0  0  0  0  0  0  0
    8.5917  -15.2481   22.0585 C   0  0  2  0  0  0  0  0  0  0  0  0
    7.7655  -14.6691   23.1411 N   0  0  0  0  0  0  0  0  0  0  0  0
    9.9052  -15.6250   22.6142 C   0  0  0  0  0  0  0  0  0  0  0  0
   10.3344  -15.0550   23.6794 O   0  0  0  0  0  0  0  0  0  0  0  0
   10.9497  -18.8693   26.2953 N   0  0  0  0  0  0  0  0  0  0  0  0
   12.2027  -18.8164   25.6344 C   0  0  0  0  0  0  0  0  0  0  0  0
   13.2353  -18.4169   26.2089 O   0  0  0  0  0  0  0  0  0  0  0  0
   12.2726  -19.2617   24.1885 C   0  0  0  0  0  0  0  0  0  0  0  0
   11.2141  -18.5197   23.4382 C   0  0  0  0  0  0  0  0  0  0  0  0
   11.7678  -17.2878   22.7903 C   0  0  2  0  0  0  0  0  0  0  0  0
   10.7174  -16.6057   22.0180 N   0  0  0  0  0  0  0  0  0  0  0  0
   12.8712  -17.6496   21.8954 C   0  0  0  0  0  0  0  0  0  0  0  0
   12.7240  -18.1058   20.7220 O   0  0  0  0  0  0  0  0  0  0  0  0
   14.1888  -17.4779   22.3702 O   0  0  0  0  0  0  0  0  0  0  0  0
  2  3  1  6
  2  1  1  0
  4  2  1  0
  4  5  1  0
  5  6  1  1
  7  5  1  0
  7  8  2  0
  9 10  1  0
 10 11  1  0
 11 13  1  0
 11 12  1  6
 13 14  1  1
 14  7  1  0
 15 16  2  0
 15 13  1  0
 17 18  1  0
 18 19  2  0
 20 18  1  0
 20 21  1  0
 22 21  1  6
 22 24  1  0
 22 23  1  0
 23 15  1  0
 24 26  1  0
 25 24  2  0
M  END
$$$$
