LIQ.pdb
     RDKit          3D

 26 25  0  0  1  0  0  0  0  0999 V2000
    5.2167  -18.8597   20.3428 C   0  0  0  0  0  0  0  0  0  0  0  0
    5.3877  -17.3457   20.4591 C   0  0  1  0  0  0  0  0  0  0  0  0
    4.0177  -16.7468   20.5925 C   0  0  0  0  0  0  0  0  0  0  0  0
    6.3305  -16.9878   21.5753 C   0  0  0  0  0  0  0  0  0  0  0  0
    6.6018  -15.5063   21.5102 C   0  0  2  0  0  0  0  0  0  0  0  0
    7.1339  -15.1708   20.2281 N   0  0  0  0  0  0  0  0  0  0  0  0
    7.5482  -15.0688   22.5682 C   0  0  0  0  0  0  0  0  0  0  0  0
    8.7705  -15.0522   22.2865 O   0  0  0  0  0  0  0  0  0  0  0  0
    5.9379  -11.3842   26.1938 C   0  0  0  0  0  0  0  0  0  0  0  0
    6.8661  -12.1580   25.2819 C   0  0  0  0  0  0  0  0  0  0  0  0
    7.2595  -13.4904   25.9363 C   0  0  2  0  0  0  0  0  0  0  0  0
    8.0598  -13.1254   27.1648 C   0  0  0  0  0  0  0  0  0  0  0  0
    7.9834  -14.3587   24.9580 C   0  0  2  0  0  0  0  0  0  0  0  0
    7.0657  -14.6876   23.8447 N   0  0  0  0  0  0  0  0  0  0  0  0
    8.5066  -15.6147   25.5282 C   0  0  0  0  0  0  0  0  0  0  0  0
    7.6937  -16.4987   25.9772 O   0  0  0  0  0  0  0  0  0  0  0  0
   13.5277  -18.1092   23.2807 N   0  0  0  0  0  0  0  0  0  0  0  0
   13.3188  -19.0711   24.3008 C   0  0  0  0  0  0  0  0  0  0  0  0
   14.0467  -20.0773   24.4179 O   0  0  0  0  0  0  0  0  0  0  0  0
   12.1740  -18.8560   25.2687 C   0  0  0  0  0  0  0  0  0  0  0  0
   11.5302  -17.5527   24.9206 C   0  0  0  0  0  0  0  0  0  0  0  0
   10.3688  -17.2614   25.8207 C   0  0  2  0  0  0  0  0  0  0  0  0
    9.8837  -15.8909   25.5945 N   0  0  0  0  0  0  0  0  0  0  0  0
   10.7762  -17.4073   27.2214 C   0  0  0  0  0  0  0  0  0  0  0  0
   10.8627  -16.4500   28.0476 O   0  0  0  0  0  0  0  0  0  0  0  0
   11.0932  -18.7020   27.6846 O   0  0  0  0  0  0  0  0  0  0  0  0
  2  3  1  1
  2  1  1  0
  4  2  1  0
  4  5  1  0
  5  6  1  6
  7  5  1  0
  7  8  2  0
  9 10  1  0
 10 11  1  0
 11 13  1  0
 11 12  1  1
 13 14  1  6
 14  7  1  0
 15 16  2  0
 15 13  1  0
 17 18  1  0
 18 19  2  0
 20 18  1  0
 20 21  1  0
 22 21  1  6
 22 24  1  0
 22 23  1  0
 23 15  1  0
 24 26  1  0
 25 24  2  0
M  END
$$$$
