IHT.pdb
     RDKit          3D

 26 26  0  0  1  0  0  0  0  0999 V2000
    7.1778  -11.8728   19.1703 C   0  0  0  0  0  0  0  0  0  0  0  0
    7.9768  -12.9755   18.5143 C   0  0  0  0  0  0  0  0  0  0  0  0
    8.2228  -14.0876   19.4794 C   0  0  2  0  0  0  0  0  0  0  0  0
    8.9238  -13.5427   20.7123 C   0  0  0  0  0  0  0  0  0  0  0  0
    8.9615  -15.2636   18.8978 C   0  0  2  0  0  0  0  0  0  0  0  0
    8.1676  -15.7444   17.7861 N   0  0  0  0  0  0  0  0  0  0  0  0
    9.1738  -16.3582   19.8379 C   0  0  0  0  0  0  0  0  0  0  0  0
    8.3168  -17.2471   20.0998 O   0  0  0  0  0  0  0  0  0  0  0  0
   10.4184  -16.4505   20.5148 N   0  0  0  0  0  0  0  0  0  0  0  0
   10.6980  -17.4798   21.5239 C   0  0  1  0  0  0  0  0  0  0  0  0
   12.1432  -17.8450   21.3384 C   0  0  0  0  0  0  0  0  0  0  0  0
   12.6271  -18.9090   22.2438 C   0  0  0  0  0  0  0  0  0  0  0  0
   11.9819  -19.5942   23.2254 C   0  0  0  0  0  0  0  0  0  0  0  0
   12.8306  -20.5230   23.7412 N   0  0  0  0  0  0  0  0  0  0  0  0
   13.9857  -20.4228   23.0939 C   0  0  0  0  0  0  0  0  0  0  0  0
   13.8819  -19.4567   22.1886 N   0  0  0  0  0  0  0  0  0  0  0  0
   10.6182  -16.7435   22.8324 C   0  0  0  0  0  0  0  0  0  0  0  0
   11.2861  -15.7323   23.0948 O   0  0  0  0  0  0  0  0  0  0  0  0
    8.0507  -14.9178   24.1703 C   0  0  0  0  0  0  0  0  0  0  0  0
    8.2350  -15.9486   25.2630 C   0  0  1  0  0  0  0  0  0  0  0  0
    7.3481  -16.9903   24.9864 O   0  0  0  0  0  0  0  0  0  0  0  0
    9.6495  -16.5110   25.1006 C   0  0  2  0  0  0  0  0  0  0  0  0
    9.7444  -17.2078   23.8343 N   0  0  0  0  0  0  0  0  0  0  0  0
    9.9779  -17.4129   26.2404 C   0  0  0  0  0  0  0  0  0  0  0  0
   10.0594  -18.6547   26.0493 O   0  0  0  0  0  0  0  0  0  0  0  0
   10.2019  -16.9509   27.5191 O   0  0  0  0  0  0  0  0  0  0  0  0
  2  3  1  0
  2  1  1  0
  3  4  1  1
  5  6  1  6
  5  3  1  0
  7  5  1  0
  8  7  2  0
  9  7  1  0
 10  9  1  0
 11 12  1  0
 10 11  1  6
 12 16  1  0
 13 14  1  0
 13 12  2  0
 14 15  1  0
 15 16  2  0
 17 10  1  0
 17 18  2  0
 20 22  1  0
 20 19  1  6
 21 20  1  0
 22 23  1  6
 23 17  1  0
 24 22  1  0
 25 24  2  0
 26 24  1  0
M  END
$$$$
