IHT.pdb
     RDKit          3D

 26 26  0  0  1  0  0  0  0  0999 V2000
    8.6426  -11.9305   18.8119 C   0  0  0  0  0  0  0  0  0  0  0  0
    9.1384  -12.9122   19.8488 C   0  0  0  0  0  0  0  0  0  0  0  0
    8.1880  -14.0557   19.9822 C   0  0  2  0  0  0  0  0  0  0  0  0
    6.8390  -13.5409   20.4550 C   0  0  0  0  0  0  0  0  0  0  0  0
    8.6861  -15.1800   20.8510 C   0  0  2  0  0  0  0  0  0  0  0  0
    8.8211  -14.6426   22.1890 N   0  0  0  0  0  0  0  0  0  0  0  0
    9.9677  -15.7350   20.4309 C   0  0  0  0  0  0  0  0  0  0  0  0
   10.1221  -16.4923   19.4331 O   0  0  0  0  0  0  0  0  0  0  0  0
   11.1322  -15.4162   21.1781 N   0  0  0  0  0  0  0  0  0  0  0  0
   12.4538  -15.9728   20.8629 C   0  0  1  0  0  0  0  0  0  0  0  0
   13.3370  -14.7880   20.5933 C   0  0  0  0  0  0  0  0  0  0  0  0
   13.9588  -14.7802   19.2520 C   0  0  0  0  0  0  0  0  0  0  0  0
   13.8340  -15.6519   18.2158 C   0  0  0  0  0  0  0  0  0  0  0  0
   14.5559  -15.1856   17.1621 N   0  0  0  0  0  0  0  0  0  0  0  0
   15.1216  -14.0420   17.5306 C   0  0  0  0  0  0  0  0  0  0  0  0
   14.7732  -13.7819   18.7855 N   0  0  0  0  0  0  0  0  0  0  0  0
   12.9265  -16.5582   22.1647 C   0  0  0  0  0  0  0  0  0  0  0  0
   13.1600  -15.8832   23.1781 O   0  0  0  0  0  0  0  0  0  0  0  0
   11.2547  -19.2637   24.0414 C   0  0  0  0  0  0  0  0  0  0  0  0
   12.6617  -19.7694   23.8069 C   0  0  1  0  0  0  0  0  0  0  0  0
   12.6277  -20.5218   22.6317 O   0  0  0  0  0  0  0  0  0  0  0  0
   13.5281  -18.5393   23.5250 C   0  0  2  0  0  0  0  0  0  0  0  0
   13.1243  -17.9487   22.2655 N   0  0  0  0  0  0  0  0  0  0  0  0
   14.9689  -18.9186   23.5075 C   0  0  0  0  0  0  0  0  0  0  0  0
   15.6124  -18.8734   22.4262 O   0  0  0  0  0  0  0  0  0  0  0  0
   15.6491  -19.3248   24.6349 O   0  0  0  0  0  0  0  0  0  0  0  0
  2  3  1  0
  2  1  1  0
  3  4  1  1
  5  6  1  1
  5  3  1  0
  7  5  1  0
  8  7  2  0
  9  7  1  0
 10  9  1  0
 11 12  1  0
 10 11  1  1
 12 16  1  0
 13 14  1  0
 13 12  2  0
 14 15  1  0
 15 16  2  0
 17 10  1  0
 17 18  2  0
 20 22  1  0
 20 19  1  6
 21 20  1  0
 22 23  1  6
 23 17  1  0
 24 22  1  0
 25 24  2  0
 26 24  1  0
M  END
$$$$
