IHT.pdb
     RDKit          3D

 26 26  0  0  1  0  0  0  0  0999 V2000
   15.2026  -18.4516   14.9915 C   0  0  0  0  0  0  0  0  0  0  0  0
   14.4040  -17.1751   14.8595 C   0  0  0  0  0  0  0  0  0  0  0  0
   12.9845  -17.4804   14.5128 C   0  0  2  0  0  0  0  0  0  0  0  0
   12.9434  -18.3657   13.2787 C   0  0  0  0  0  0  0  0  0  0  0  0
   12.1088  -16.2662   14.3516 C   0  0  2  0  0  0  0  0  0  0  0  0
   12.7380  -15.4303   13.3502 N   0  0  0  0  0  0  0  0  0  0  0  0
   11.9335  -15.4912   15.5746 C   0  0  0  0  0  0  0  0  0  0  0  0
   12.7427  -14.6124   15.9820 O   0  0  0  0  0  0  0  0  0  0  0  0
   10.7846  -15.7233   16.3760 N   0  0  0  0  0  0  0  0  0  0  0  0
   10.4987  -14.9546   17.5938 C   0  0  1  0  0  0  0  0  0  0  0  0
    9.0051  -14.7997   17.6320 C   0  0  0  0  0  0  0  0  0  0  0  0
    8.4923  -14.1005   18.8295 C   0  0  0  0  0  0  0  0  0  0  0  0
    9.1559  -13.5172   19.8633 C   0  0  0  0  0  0  0  0  0  0  0  0
    8.2484  -12.9449   20.6987 N   0  0  0  0  0  0  0  0  0  0  0  0
    7.0385  -13.1642   20.1970 C   0  0  0  0  0  0  0  0  0  0  0  0
    7.1656  -13.8580   19.0718 N   0  0  0  0  0  0  0  0  0  0  0  0
   10.8495  -15.8951   18.7133 C   0  0  0  0  0  0  0  0  0  0  0  0
   10.4919  -17.0816   18.7528 O   0  0  0  0  0  0  0  0  0  0  0  0
   14.0181  -16.9331   19.8915 C   0  0  0  0  0  0  0  0  0  0  0  0
   13.4124  -16.3550   21.1522 C   0  0  1  0  0  0  0  0  0  0  0  0
   13.8669  -15.0389   21.2496 O   0  0  0  0  0  0  0  0  0  0  0  0
   11.9004  -16.2897   20.9217 C   0  0  2  0  0  0  0  0  0  0  0  0
   11.6261  -15.4273   19.7908 N   0  0  0  0  0  0  0  0  0  0  0  0
   11.2136  -15.8041   22.1516 C   0  0  0  0  0  0  0  0  0  0  0  0
   10.6401  -14.6833   22.1441 O   0  0  0  0  0  0  0  0  0  0  0  0
   11.1716  -16.5313   23.3213 O   0  0  0  0  0  0  0  0  0  0  0  0
  2  3  1  0
  2  1  1  0
  3  4  1  6
  5  6  1  6
  5  3  1  0
  7  5  1  0
  8  7  2  0
  9  7  1  0
 10  9  1  0
 11 12  1  0
 10 11  1  1
 12 16  1  0
 13 14  1  0
 13 12  2  0
 14 15  1  0
 15 16  2  0
 17 10  1  0
 17 18  2  0
 20 22  1  0
 20 19  1  6
 21 20  1  0
 22 23  1  6
 23 17  1  0
 24 22  1  0
 25 24  2  0
 26 24  1  0
M  END
$$$$
