IHT.pdb
     RDKit          3D

 26 26  0  0  1  0  0  0  0  0999 V2000
    7.4865  -11.8006   18.9566 C   0  0  0  0  0  0  0  0  0  0  0  0
    8.3109  -12.9841   18.5048 C   0  0  0  0  0  0  0  0  0  0  0  0
    8.3989  -14.0046   19.5908 C   0  0  2  0  0  0  0  0  0  0  0  0
    8.9100  -13.3486   20.8624 C   0  0  0  0  0  0  0  0  0  0  0  0
    9.2073  -15.2239   19.2343 C   0  0  2  0  0  0  0  0  0  0  0  0
    8.5828  -15.8093   18.0661 N   0  0  0  0  0  0  0  0  0  0  0  0
    9.2709  -16.2267   20.2913 C   0  0  0  0  0  0  0  0  0  0  0  0
    8.3217  -17.0013   20.5949 O   0  0  0  0  0  0  0  0  0  0  0  0
   10.4691  -16.3587   21.0416 N   0  0  0  0  0  0  0  0  0  0  0  0
   10.6765  -17.4315   22.0224 C   0  0  1  0  0  0  0  0  0  0  0  0
   12.1407  -17.7606   21.9570 C   0  0  0  0  0  0  0  0  0  0  0  0
   12.5212  -18.6392   20.8305 C   0  0  0  0  0  0  0  0  0  0  0  0
   11.8327  -19.6403   20.2198 C   0  0  0  0  0  0  0  0  0  0  0  0
   12.5771  -20.1165   19.1864 N   0  0  0  0  0  0  0  0  0  0  0  0
   13.7106  -19.4257   19.1492 C   0  0  0  0  0  0  0  0  0  0  0  0
   13.6947  -18.5318   20.1312 N   0  0  0  0  0  0  0  0  0  0  0  0
   10.4580  -16.7624   23.3511 C   0  0  0  0  0  0  0  0  0  0  0  0
   11.0606  -15.7418   23.7149 O   0  0  0  0  0  0  0  0  0  0  0  0
    7.4688  -15.3210   24.6099 C   0  0  0  0  0  0  0  0  0  0  0  0
    7.7932  -16.3526   25.6687 C   0  0  1  0  0  0  0  0  0  0  0  0
    7.0983  -17.5133   25.3253 O   0  0  0  0  0  0  0  0  0  0  0  0
    9.2849  -16.6675   25.5310 C   0  0  2  0  0  0  0  0  0  0  0  0
    9.5226  -17.3057   24.2526 N   0  0  0  0  0  0  0  0  0  0  0  0
    9.7340  -17.5315   26.6588 C   0  0  0  0  0  0  0  0  0  0  0  0
   10.1718  -18.6880   26.4223 O   0  0  0  0  0  0  0  0  0  0  0  0
    9.6949  -17.1239   27.9745 O   0  0  0  0  0  0  0  0  0  0  0  0
  2  3  1  0
  2  1  1  0
  3  4  1  1
  5  6  1  6
  5  3  1  0
  7  5  1  0
  8  7  2  0
  9  7  1  0
 10  9  1  0
 11 12  1  0
 10 11  1  1
 12 16  1  0
 13 14  1  0
 13 12  2  0
 14 15  1  0
 15 16  2  0
 17 10  1  0
 17 18  2  0
 20 22  1  0
 20 19  1  6
 21 20  1  0
 22 23  1  6
 23 17  1  0
 24 22  1  0
 25 24  2  0
 26 24  1  0
M  END
$$$$
