IHT.pdb
     RDKit          3D

 26 26  0  0  1  0  0  0  0  0999 V2000
    7.8317  -11.9559   18.5407 C   0  0  0  0  0  0  0  0  0  0  0  0
    8.3719  -13.3518   18.7515 C   0  0  0  0  0  0  0  0  0  0  0  0
    7.8403  -13.9316   20.0203 C   0  0  2  0  0  0  0  0  0  0  0  0
    8.2133  -13.0299   21.1849 C   0  0  0  0  0  0  0  0  0  0  0  0
    8.2510  -15.3581   20.2720 C   0  0  2  0  0  0  0  0  0  0  0  0
    7.6479  -16.1552   19.2240 N   0  0  0  0  0  0  0  0  0  0  0  0
    7.8297  -15.8799   21.5672 C   0  0  0  0  0  0  0  0  0  0  0  0
    6.6559  -16.2599   21.8332 O   0  0  0  0  0  0  0  0  0  0  0  0
    8.7855  -15.9760   22.6127 N   0  0  0  0  0  0  0  0  0  0  0  0
    8.4454  -16.4614   23.9560 C   0  0  1  0  0  0  0  0  0  0  0  0
    9.3863  -17.6013   24.2236 C   0  0  0  0  0  0  0  0  0  0  0  0
    8.9993  -18.8775   23.5854 C   0  0  0  0  0  0  0  0  0  0  0  0
    8.0046  -19.1567   22.7012 C   0  0  0  0  0  0  0  0  0  0  0  0
    8.0850  -20.4683   22.3517 N   0  0  0  0  0  0  0  0  0  0  0  0
    9.1119  -21.0010   23.0038 C   0  0  0  0  0  0  0  0  0  0  0  0
    9.6745  -20.0583   23.7511 N   0  0  0  0  0  0  0  0  0  0  0  0
    8.8713  -15.3454   24.8693 C   0  0  0  0  0  0  0  0  0  0  0  0
    9.9866  -14.8058   24.8226 O   0  0  0  0  0  0  0  0  0  0  0  0
    6.7860  -12.2323   25.6143 C   0  0  0  0  0  0  0  0  0  0  0  0
    7.1229  -12.8747   26.9426 C   0  0  1  0  0  0  0  0  0  0  0  0
    6.0600  -13.7218   27.2604 O   0  0  0  0  0  0  0  0  0  0  0  0
    8.3459  -13.7633   26.7018 C   0  0  2  0  0  0  0  0  0  0  0  0
    7.9724  -14.8678   25.8423 N   0  0  0  0  0  0  0  0  0  0  0  0
    8.8921  -14.2488   28.0003 C   0  0  0  0  0  0  0  0  0  0  0  0
    8.8839  -15.4811   28.2584 O   0  0  0  0  0  0  0  0  0  0  0  0
    9.4167  -13.4036   28.9538 O   0  0  0  0  0  0  0  0  0  0  0  0
  2  3  1  0
  2  1  1  0
  3  4  1  1
  5  6  1  6
  5  3  1  0
  7  5  1  0
  8  7  2  0
  9  7  1  0
 10  9  1  0
 11 12  1  0
 10 11  1  1
 12 16  1  0
 13 14  1  0
 13 12  2  0
 14 15  1  0
 15 16  2  0
 17 10  1  0
 17 18  2  0
 20 22  1  0
 20 19  1  6
 21 20  1  0
 22 23  1  6
 23 17  1  0
 24 22  1  0
 25 24  2  0
 26 24  1  0
M  END
$$$$
