IHT.pdb
     RDKit          3D

 26 26  0  0  1  0  0  0  0  0999 V2000
    5.8228  -11.5103   26.4520 C   0  0  0  0  0  0  0  0  0  0  0  0
    5.6510  -12.7833   25.6553 C   0  0  0  0  0  0  0  0  0  0  0  0
    6.8974  -13.6034   25.7058 C   0  0  2  0  0  0  0  0  0  0  0  0
    8.0786  -12.7582   25.2598 C   0  0  0  0  0  0  0  0  0  0  0  0
    6.8222  -14.8968   24.9386 C   0  0  2  0  0  0  0  0  0  0  0  0
    5.6087  -15.5625   25.3648 N   0  0  0  0  0  0  0  0  0  0  0  0
    7.9553  -15.7879   25.1602 C   0  0  0  0  0  0  0  0  0  0  0  0
    8.0510  -16.5889   26.1309 O   0  0  0  0  0  0  0  0  0  0  0  0
    9.0333  -15.7708   24.2363 N   0  0  0  0  0  0  0  0  0  0  0  0
   10.1345  -16.7408   24.2845 C   0  0  1  0  0  0  0  0  0  0  0  0
   10.9126  -16.5314   23.0168 C   0  0  0  0  0  0  0  0  0  0  0  0
   10.2907  -17.1208   21.8120 C   0  0  0  0  0  0  0  0  0  0  0  0
    9.1393  -17.8302   21.6698 C   0  0  0  0  0  0  0  0  0  0  0  0
    8.9545  -18.1051   20.3510 N   0  0  0  0  0  0  0  0  0  0  0  0
    9.9706  -17.5766   19.6789 C   0  0  0  0  0  0  0  0  0  0  0  0
   10.7849  -16.9799   20.5418 N   0  0  0  0  0  0  0  0  0  0  0  0
   11.0126  -16.2454   25.3999 C   0  0  0  0  0  0  0  0  0  0  0  0
   11.8209  -15.3133   25.2771 O   0  0  0  0  0  0  0  0  0  0  0  0
   10.6191  -14.3567   28.0873 C   0  0  0  0  0  0  0  0  0  0  0  0
   11.0381  -15.6422   28.7671 C   0  0  1  0  0  0  0  0  0  0  0  0
    9.8683  -16.3548   29.0355 O   0  0  0  0  0  0  0  0  0  0  0  0
   11.8251  -16.4492   27.7314 C   0  0  2  0  0  0  0  0  0  0  0  0
   10.9333  -16.8576   26.6655 N   0  0  0  0  0  0  0  0  0  0  0  0
   12.4695  -17.6264   28.3787 C   0  0  0  0  0  0  0  0  0  0  0  0
   12.1118  -18.7893   28.0549 O   0  0  0  0  0  0  0  0  0  0  0  0
   13.4568  -17.5080   29.3326 O   0  0  0  0  0  0  0  0  0  0  0  0
  2  3  1  0
  2  1  1  0
  3  4  1  6
  5  6  1  1
  5  3  1  0
  7  5  1  0
  8  7  2  0
  9  7  1  0
 10  9  1  0
 11 12  1  0
 10 11  1  6
 12 16  1  0
 13 14  1  0
 13 12  2  0
 14 15  1  0
 15 16  2  0
 17 10  1  0
 17 18  2  0
 20 22  1  0
 20 19  1  6
 21 20  1  0
 22 23  1  6
 23 17  1  0
 24 22  1  0
 25 24  2  0
 26 24  1  0
M  END
$$$$
