IHT.pdb
     RDKit          3D

 26 26  0  0  1  0  0  0  0  0999 V2000
   13.3050  -20.5454   21.3482 C   0  0  0  0  0  0  0  0  0  0  0  0
   12.1668  -19.8371   20.6499 C   0  0  0  0  0  0  0  0  0  0  0  0
   11.8651  -18.5407   21.3258 C   0  0  2  0  0  0  0  0  0  0  0  0
   11.6588  -18.7800   22.8119 C   0  0  0  0  0  0  0  0  0  0  0  0
   10.7146  -17.7786   20.7236 C   0  0  2  0  0  0  0  0  0  0  0  0
   11.0181  -17.6108   19.3175 N   0  0  0  0  0  0  0  0  0  0  0  0
   10.4910  -16.4669   21.3207 C   0  0  0  0  0  0  0  0  0  0  0  0
   11.3659  -15.5601   21.3936 O   0  0  0  0  0  0  0  0  0  0  0  0
    9.2130  -16.1676   21.8621 N   0  0  0  0  0  0  0  0  0  0  0  0
    8.9151  -14.8981   22.5369 C   0  0  1  0  0  0  0  0  0  0  0  0
    7.6904  -14.3568   21.8560 C   0  0  0  0  0  0  0  0  0  0  0  0
    7.9009  -13.9491   20.4505 C   0  0  0  0  0  0  0  0  0  0  0  0
    9.0305  -13.9398   19.6935 C   0  0  0  0  0  0  0  0  0  0  0  0
    8.7103  -13.5384   18.4344 N   0  0  0  0  0  0  0  0  0  0  0  0
    7.4039  -13.3019   18.4025 C   0  0  0  0  0  0  0  0  0  0  0  0
    6.8998  -13.5440   19.6071 N   0  0  0  0  0  0  0  0  0  0  0  0
    8.4789  -15.3080   23.9162 C   0  0  0  0  0  0  0  0  0  0  0  0
    7.7104  -14.6386   24.6222 O   0  0  0  0  0  0  0  0  0  0  0  0
    6.2813  -17.1949   25.2402 C   0  0  0  0  0  0  0  0  0  0  0  0
    7.4898  -17.9009   25.8160 C   0  0  1  0  0  0  0  0  0  0  0  0
    7.8434  -18.8990   24.9065 O   0  0  0  0  0  0  0  0  0  0  0  0
    8.6305  -16.8801   25.8248 C   0  0  2  0  0  0  0  0  0  0  0  0
    8.9563  -16.5154   24.4614 N   0  0  0  0  0  0  0  0  0  0  0  0
    9.8158  -17.4401   26.5331 C   0  0  0  0  0  0  0  0  0  0  0  0
   10.8966  -17.6019   25.9079 O   0  0  0  0  0  0  0  0  0  0  0  0
    9.7919  -17.7978   27.8636 O   0  0  0  0  0  0  0  0  0  0  0  0
  2  3  1  0
  2  1  1  0
  3  4  1  1
  5  6  1  6
  5  3  1  0
  7  5  1  0
  8  7  2  0
  9  7  1  0
 10  9  1  0
 11 12  1  0
 10 11  1  6
 12 16  1  0
 13 14  1  0
 13 12  2  0
 14 15  1  0
 15 16  2  0
 17 10  1  0
 17 18  2  0
 20 22  1  0
 20 19  1  6
 21 20  1  0
 22 23  1  6
 23 17  1  0
 24 22  1  0
 25 24  2  0
 26 24  1  0
M  END
$$$$
