IHT.pdb
     RDKit          3D

 26 26  0  0  1  0  0  0  0  0999 V2000
    7.4423  -11.7172   18.8666 C   0  0  0  0  0  0  0  0  0  0  0  0
    8.0455  -13.0267   18.4126 C   0  0  0  0  0  0  0  0  0  0  0  0
    8.1065  -13.9950   19.5472 C   0  0  2  0  0  0  0  0  0  0  0  0
    8.8406  -13.3604   20.7162 C   0  0  0  0  0  0  0  0  0  0  0  0
    8.6909  -15.3358   19.1895 C   0  0  2  0  0  0  0  0  0  0  0  0
    7.8502  -15.8912   18.1493 N   0  0  0  0  0  0  0  0  0  0  0  0
    8.7515  -16.2757   20.3031 C   0  0  0  0  0  0  0  0  0  0  0  0
    7.7662  -16.9409   20.7268 O   0  0  0  0  0  0  0  0  0  0  0  0
    9.9897  -16.4717   20.9697 N   0  0  0  0  0  0  0  0  0  0  0  0
   10.1562  -17.4327   22.0672 C   0  0  1  0  0  0  0  0  0  0  0  0
   11.5587  -17.9547   21.9374 C   0  0  0  0  0  0  0  0  0  0  0  0
   11.7449  -18.9483   20.8585 C   0  0  0  0  0  0  0  0  0  0  0  0
   10.8992  -19.8982   20.3772 C   0  0  0  0  0  0  0  0  0  0  0  0
   11.4998  -20.5310   19.3342 N   0  0  0  0  0  0  0  0  0  0  0  0
   12.6991  -19.9868   19.1641 C   0  0  0  0  0  0  0  0  0  0  0  0
   12.8641  -19.0322   20.0724 N   0  0  0  0  0  0  0  0  0  0  0  0
   10.1405  -16.5819   23.3068 C   0  0  0  0  0  0  0  0  0  0  0  0
   11.0063  -15.7345   23.5707 O   0  0  0  0  0  0  0  0  0  0  0  0
    7.4083  -14.4666   24.6145 C   0  0  0  0  0  0  0  0  0  0  0  0
    7.7089  -15.4278   25.7442 C   0  0  1  0  0  0  0  0  0  0  0  0
    6.8116  -16.4894   25.6182 O   0  0  0  0  0  0  0  0  0  0  0  0
    9.1075  -15.9911   25.4796 C   0  0  2  0  0  0  0  0  0  0  0  0
    9.0954  -16.7367   24.2378 N   0  0  0  0  0  0  0  0  0  0  0  0
    9.5413  -16.8463   26.6200 C   0  0  0  0  0  0  0  0  0  0  0  0
    9.7211  -18.0796   26.4413 O   0  0  0  0  0  0  0  0  0  0  0  0
    9.7608  -16.3493   27.8863 O   0  0  0  0  0  0  0  0  0  0  0  0
  2  3  1  0
  2  1  1  0
  3  4  1  1
  5  6  1  6
  5  3  1  0
  7  5  1  0
  8  7  2  0
  9  7  1  0
 10  9  1  0
 11 12  1  0
 10 11  1  6
 12 16  1  0
 13 14  1  0
 13 12  2  0
 14 15  1  0
 15 16  2  0
 17 10  1  0
 17 18  2  0
 20 22  1  0
 20 19  1  6
 21 20  1  0
 22 23  1  6
 23 17  1  0
 24 22  1  0
 25 24  2  0
 26 24  1  0
M  END
$$$$
