IHT.pdb
     RDKit          3D

 26 26  0  0  1  0  0  0  0  0999 V2000
    7.1569  -11.7955   19.3145 C   0  0  0  0  0  0  0  0  0  0  0  0
    7.7804  -13.0518   18.7508 C   0  0  0  0  0  0  0  0  0  0  0  0
    7.9952  -14.0587   19.8318 C   0  0  2  0  0  0  0  0  0  0  0  0
    8.8241  -13.4391   20.9441 C   0  0  0  0  0  0  0  0  0  0  0  0
    8.5874  -15.3603   19.3602 C   0  0  2  0  0  0  0  0  0  0  0  0
    7.6829  -15.8905   18.3612 N   0  0  0  0  0  0  0  0  0  0  0  0
    8.7633  -16.3519   20.4152 C   0  0  0  0  0  0  0  0  0  0  0  0
    7.8538  -17.1266   20.8220 O   0  0  0  0  0  0  0  0  0  0  0  0
   10.0325  -16.4717   21.0403 N   0  0  0  0  0  0  0  0  0  0  0  0
   10.3258  -17.4971   22.0495 C   0  0  1  0  0  0  0  0  0  0  0  0
   11.7629  -17.8771   21.8330 C   0  0  0  0  0  0  0  0  0  0  0  0
   11.9807  -18.8545   20.7453 C   0  0  0  0  0  0  0  0  0  0  0  0
   11.0885  -19.5155   19.9603 C   0  0  0  0  0  0  0  0  0  0  0  0
   11.7728  -20.2642   19.0546 N   0  0  0  0  0  0  0  0  0  0  0  0
   13.0698  -20.0748   19.2672 C   0  0  0  0  0  0  0  0  0  0  0  0
   13.2142  -19.2290   20.2808 N   0  0  0  0  0  0  0  0  0  0  0  0
   10.2833  -16.7517   23.3546 C   0  0  0  0  0  0  0  0  0  0  0  0
   10.4187  -15.5229   23.4499 O   0  0  0  0  0  0  0  0  0  0  0  0
    8.5919  -15.1373   24.3007 C   0  0  0  0  0  0  0  0  0  0  0  0
    8.3584  -16.0350   25.4966 C   0  0  1  0  0  0  0  0  0  0  0  0
    7.4262  -16.9959   25.1017 O   0  0  0  0  0  0  0  0  0  0  0  0
    9.6756  -16.7705   25.7561 C   0  0  2  0  0  0  0  0  0  0  0  0
   10.0806  -17.4653   24.5514 N   0  0  0  0  0  0  0  0  0  0  0  0
    9.5208  -17.7140   26.8989 C   0  0  0  0  0  0  0  0  0  0  0  0
    9.4821  -18.9538   26.6829 O   0  0  0  0  0  0  0  0  0  0  0  0
    9.4154  -17.2936   28.2069 O   0  0  0  0  0  0  0  0  0  0  0  0
  2  3  1  0
  2  1  1  0
  3  4  1  1
  5  6  1  6
  5  3  1  0
  7  5  1  0
  8  7  2  0
  9  7  1  0
 10  9  1  0
 11 12  1  0
 10 11  1  6
 12 16  1  0
 13 14  1  0
 13 12  2  0
 14 15  1  0
 15 16  2  0
 17 10  1  0
 17 18  2  0
 20 22  1  0
 20 19  1  6
 21 20  1  0
 22 23  1  6
 23 17  1  0
 24 22  1  0
 25 24  2  0
 26 24  1  0
M  END
$$$$
