IHT.pdb
     RDKit          3D

 26 26  0  0  1  0  0  0  0  0999 V2000
    6.8448  -11.5962   27.8025 C   0  0  0  0  0  0  0  0  0  0  0  0
    6.0203  -12.6402   27.0849 C   0  0  0  0  0  0  0  0  0  0  0  0
    6.8884  -13.4775   26.2051 C   0  0  2  0  0  0  0  0  0  0  0  0
    7.6752  -12.5787   25.2663 C   0  0  0  0  0  0  0  0  0  0  0  0
    6.1549  -14.5559   25.4527 C   0  0  2  0  0  0  0  0  0  0  0  0
    5.5199  -15.3970   26.4461 N   0  0  0  0  0  0  0  0  0  0  0  0
    7.0111  -15.3817   24.6089 C   0  0  0  0  0  0  0  0  0  0  0  0
    7.5977  -16.4288   24.9995 O   0  0  0  0  0  0  0  0  0  0  0  0
    7.2130  -15.0024   23.2557 N   0  0  0  0  0  0  0  0  0  0  0  0
    7.9129  -15.8571   22.2885 C   0  0  1  0  0  0  0  0  0  0  0  0
    7.8064  -15.1457   20.9699 C   0  0  0  0  0  0  0  0  0  0  0  0
    8.4485  -15.8506   19.8400 C   0  0  0  0  0  0  0  0  0  0  0  0
    9.0606  -17.0639   19.7893 C   0  0  0  0  0  0  0  0  0  0  0  0
    9.4413  -17.3089   18.5071 N   0  0  0  0  0  0  0  0  0  0  0  0
    9.0734  -16.2690   17.7677 C   0  0  0  0  0  0  0  0  0  0  0  0
    8.4740  -15.3814   18.5528 N   0  0  0  0  0  0  0  0  0  0  0  0
    9.3575  -15.7671   22.6958 C   0  0  0  0  0  0  0  0  0  0  0  0
    9.9401  -14.6988   22.9334 O   0  0  0  0  0  0  0  0  0  0  0  0
   11.1191  -17.0980   25.5871 C   0  0  0  0  0  0  0  0  0  0  0  0
   11.7620  -17.7827   24.4003 C   0  0  1  0  0  0  0  0  0  0  0  0
   11.0497  -18.9631   24.1830 O   0  0  0  0  0  0  0  0  0  0  0  0
   11.5145  -16.8817   23.1877 C   0  0  2  0  0  0  0  0  0  0  0  0
   10.1148  -16.9477   22.8210 N   0  0  0  0  0  0  0  0  0  0  0  0
   12.3907  -17.2927   22.0548 C   0  0  0  0  0  0  0  0  0  0  0  0
   11.8925  -17.8966   21.0687 O   0  0  0  0  0  0  0  0  0  0  0  0
   13.7453  -17.0420   22.0279 O   0  0  0  0  0  0  0  0  0  0  0  0
  2  3  1  0
  2  1  1  0
  3  4  1  6
  5  6  1  1
  5  3  1  0
  7  5  1  0
  8  7  2  0
  9  7  1  0
 10  9  1  0
 11 12  1  0
 10 11  1  6
 12 16  1  0
 13 14  1  0
 13 12  2  0
 14 15  1  0
 15 16  2  0
 17 10  1  0
 17 18  2  0
 20 22  1  0
 20 19  1  1
 21 20  1  0
 22 23  1  6
 23 17  1  0
 24 22  1  0
 25 24  2  0
 26 24  1  0
M  END
$$$$
