EEP.pdb
     RDKit          3D

 26 26  0  0  1  0  0  0  0  0999 V2000
   24.1297  -20.1197  -16.5314 N   0  0  0  0  0  0  0  0  0  0  0  0
   23.8699  -18.8311  -15.8860 C   0  0  1  0  0  0  0  0  0  0  0  0
   24.8095  -17.8446  -16.4921 C   0  0  0  0  0  0  0  0  0  0  0  0
   24.6840  -17.6650  -17.9587 C   0  0  0  0  0  0  0  0  0  0  0  0
   25.5580  -16.6398  -18.5346 C   0  0  0  0  0  0  0  0  0  0  0  0
   24.9761  -15.6101  -19.0195 O   0  0  0  0  0  0  0  0  0  0  0  0
   22.4585  -18.4956  -16.0632 C   0  0  0  0  0  0  0  0  0  0  0  0
   21.8246  -18.8505  -17.0886 O   0  0  0  0  0  0  0  0  0  0  0  0
   26.9225  -16.6697  -18.6071 O   0  0  0  0  0  0  0  0  0  0  0  0
   21.7462  -17.7552  -15.0841 N   0  0  0  0  0  0  0  0  0  0  0  0
   20.3370  -17.4247  -15.2392 C   0  0  1  0  0  0  0  0  0  0  0  0
   19.5717  -17.9139  -14.0371 C   0  0  0  0  0  0  0  0  0  0  0  0
   19.5783  -19.4034  -13.9410 C   0  0  0  0  0  0  0  0  0  0  0  0
   18.8385  -19.8642  -12.7125 C   0  0  0  0  0  0  0  0  0  0  0  0
   18.3640  -19.0130  -11.9530 O   0  0  0  0  0  0  0  0  0  0  0  0
   20.0333  -16.0778  -15.6647 C   0  0  0  0  0  0  0  0  0  0  0  0
   20.9354  -15.1657  -15.4096 O   0  0  0  0  0  0  0  0  0  0  0  0
   18.7155  -21.1999  -12.4771 O   0  0  0  0  0  0  0  0  0  0  0  0
   18.9042  -15.5521  -16.3277 N   0  0  0  0  0  0  0  0  0  0  0  0
   17.7398  -16.3378  -16.6841 C   0  0  0  0  0  0  0  0  0  0  0  0
   17.1253  -15.6275  -17.8443 C   0  0  0  0  0  0  0  0  0  0  0  0
   17.8592  -14.3382  -18.0141 C   0  0  0  0  0  0  0  0  0  0  0  0
   18.6732  -14.2154  -16.7334 C   0  0  1  0  0  0  0  0  0  0  0  0
   17.9439  -13.3915  -15.7422 C   0  0  0  0  0  0  0  0  0  0  0  0
   17.4177  -13.8122  -14.7050 O   0  0  0  0  0  0  0  0  0  0  0  0
   17.8467  -12.0260  -16.0083 O   0  0  0  0  0  0  0  0  0  0  0  0
  2  1  1  6
  2  7  1  0
  3  2  1  0
  3  4  1  0
  4  5  1  0
  5  9  1  0
  5  6  2  0
  7  8  2  0
 10  7  1  0
 10 11  1  0
 11 16  1  0
 11 12  1  1
 12 13  1  0
 13 14  1  0
 14 18  1  0
 14 15  2  0
 16 17  2  0
 19 23  1  0
 19 16  1  0
 20 19  1  0
 21 20  1  0
 21 22  1  0
 22 23  1  0
 23 24  1  1
 24 26  1  0
 25 24  2  0
M  END
$$$$
