EEP.pdb
     RDKit          3D

 26 26  0  0  1  0  0  0  0  0999 V2000
   20.7513  -21.5414  -14.9597 N   0  0  0  0  0  0  0  0  0  0  0  0
   21.3121  -20.6793  -13.9171 C   0  0  1  0  0  0  0  0  0  0  0  0
   20.7174  -21.1202  -12.6228 C   0  0  0  0  0  0  0  0  0  0  0  0
   19.2549  -20.9129  -12.4916 C   0  0  0  0  0  0  0  0  0  0  0  0
   18.4241  -21.9509  -13.1071 C   0  0  0  0  0  0  0  0  0  0  0  0
   18.4405  -23.0964  -12.5399 O   0  0  0  0  0  0  0  0  0  0  0  0
   22.7697  -20.7746  -13.9657 C   0  0  0  0  0  0  0  0  0  0  0  0
   23.4983  -20.0385  -13.2538 O   0  0  0  0  0  0  0  0  0  0  0  0
   17.6381  -21.8227  -14.2179 O   0  0  0  0  0  0  0  0  0  0  0  0
   23.4218  -21.7023  -14.8191 N   0  0  0  0  0  0  0  0  0  0  0  0
   24.8644  -21.6911  -15.0140 C   0  0  1  0  0  0  0  0  0  0  0  0
   25.3055  -23.0186  -15.5734 C   0  0  0  0  0  0  0  0  0  0  0  0
   25.1044  -24.1291  -14.5964 C   0  0  0  0  0  0  0  0  0  0  0  0
   25.5833  -25.4382  -15.1674 C   0  0  0  0  0  0  0  0  0  0  0  0
   24.7433  -26.2687  -15.5295 O   0  0  0  0  0  0  0  0  0  0  0  0
   25.4182  -20.5263  -15.6650 C   0  0  0  0  0  0  0  0  0  0  0  0
   24.6685  -19.9476  -16.5672 O   0  0  0  0  0  0  0  0  0  0  0  0
   26.9223  -25.6656  -15.2667 O   0  0  0  0  0  0  0  0  0  0  0  0
   26.6607  -19.8789  -15.4974 N   0  0  0  0  0  0  0  0  0  0  0  0
   27.6538  -20.2799  -14.5211 C   0  0  0  0  0  0  0  0  0  0  0  0
   28.4542  -19.0504  -14.2454 C   0  0  0  0  0  0  0  0  0  0  0  0
   28.0096  -18.0054  -15.2149 C   0  0  0  0  0  0  0  0  0  0  0  0
   27.1801  -18.7826  -16.2276 C   0  0  1  0  0  0  0  0  0  0  0  0
   28.0166  -19.1613  -17.3894 C   0  0  0  0  0  0  0  0  0  0  0  0
   28.4392  -18.3854  -18.2548 O   0  0  0  0  0  0  0  0  0  0  0  0
   28.3520  -20.5094  -17.5108 O   0  0  0  0  0  0  0  0  0  0  0  0
  2  1  1  6
  2  7  1  0
  3  2  1  0
  3  4  1  0
  4  5  1  0
  5  9  1  0
  5  6  2  0
  7  8  2  0
 10  7  1  0
 10 11  1  0
 11 16  1  0
 11 12  1  6
 12 13  1  0
 13 14  1  0
 14 18  1  0
 14 15  2  0
 16 17  2  0
 19 23  1  0
 19 16  1  0
 20 19  1  0
 21 20  1  0
 21 22  1  0
 22 23  1  0
 23 24  1  6
 24 26  1  0
 25 24  2  0
M  END
$$$$
