EEP.pdb
     RDKit          3D

 26 26  0  0  1  0  0  0  0  0999 V2000
   15.7698  -11.4102  -15.0135 N   0  0  0  0  0  0  0  0  0  0  0  0
   15.9709  -10.0552  -15.5311 C   0  0  1  0  0  0  0  0  0  0  0  0
   14.9279   -9.1923  -14.9059 C   0  0  0  0  0  0  0  0  0  0  0  0
   14.9785   -7.7591  -15.2830 C   0  0  0  0  0  0  0  0  0  0  0  0
   13.9179   -6.9287  -14.7067 C   0  0  0  0  0  0  0  0  0  0  0  0
   14.2703   -6.1334  -13.7700 O   0  0  0  0  0  0  0  0  0  0  0  0
   17.3413   -9.6409  -15.2367 C   0  0  0  0  0  0  0  0  0  0  0  0
   17.8184   -9.7317  -14.0776 O   0  0  0  0  0  0  0  0  0  0  0  0
   12.5987   -6.9160  -15.0641 O   0  0  0  0  0  0  0  0  0  0  0  0
   18.1891   -9.1190  -16.2481 N   0  0  0  0  0  0  0  0  0  0  0  0
   19.5607   -8.7154  -15.9742 C   0  0  1  0  0  0  0  0  0  0  0  0
   20.4657   -9.2481  -17.0546 C   0  0  0  0  0  0  0  0  0  0  0  0
   20.6133  -10.7313  -16.9763 C   0  0  0  0  0  0  0  0  0  0  0  0
   21.5308  -11.2363  -18.0589 C   0  0  0  0  0  0  0  0  0  0  0  0
   22.7056  -10.8539  -18.0653 O   0  0  0  0  0  0  0  0  0  0  0  0
   19.7664   -7.3308  -15.6165 C   0  0  0  0  0  0  0  0  0  0  0  0
   18.8656   -6.4785  -16.0323 O   0  0  0  0  0  0  0  0  0  0  0  0
   21.0395  -12.0957  -18.9941 O   0  0  0  0  0  0  0  0  0  0  0  0
   20.7955   -6.7125  -14.8752 N   0  0  0  0  0  0  0  0  0  0  0  0
   21.8459   -7.4400  -14.1914 C   0  0  0  0  0  0  0  0  0  0  0  0
   22.2953   -6.5397  -13.0888 C   0  0  0  0  0  0  0  0  0  0  0  0
   21.6070   -5.2282  -13.2790 C   0  0  0  0  0  0  0  0  0  0  0  0
   21.0215   -5.3283  -14.6807 C   0  0  1  0  0  0  0  0  0  0  0  0
   21.9428   -4.7138  -15.6637 C   0  0  0  0  0  0  0  0  0  0  0  0
   22.6918   -5.3304  -16.4308 O   0  0  0  0  0  0  0  0  0  0  0  0
   21.9617   -3.3206  -15.7234 O   0  0  0  0  0  0  0  0  0  0  0  0
  2  1  1  1
  2  7  1  0
  3  2  1  0
  3  4  1  0
  4  5  1  0
  5  9  1  0
  5  6  2  0
  7  8  2  0
 10  7  1  0
 10 11  1  0
 11 16  1  0
 11 12  1  6
 12 13  1  0
 13 14  1  0
 14 18  1  0
 14 15  2  0
 16 17  2  0
 19 23  1  0
 19 16  1  0
 20 19  1  0
 21 20  1  0
 21 22  1  0
 22 23  1  0
 23 24  1  6
 24 26  1  0
 25 24  2  0
M  END
$$$$
