EEP.pdb
     RDKit          3D

 26 26  0  0  1  0  0  0  0  0999 V2000
   22.7149  -19.5046  -17.3691 N   0  0  0  0  0  0  0  0  0  0  0  0
   23.5935  -19.1788  -16.2438 C   0  0  1  0  0  0  0  0  0  0  0  0
   24.3606  -17.9600  -16.6305 C   0  0  0  0  0  0  0  0  0  0  0  0
   25.2773  -18.1252  -17.7844 C   0  0  0  0  0  0  0  0  0  0  0  0
   26.6161  -18.6153  -17.4471 C   0  0  0  0  0  0  0  0  0  0  0  0
   26.7386  -19.8817  -17.3234 O   0  0  0  0  0  0  0  0  0  0  0  0
   22.7749  -19.0114  -15.0446 C   0  0  0  0  0  0  0  0  0  0  0  0
   23.2795  -18.6483  -13.9525 O   0  0  0  0  0  0  0  0  0  0  0  0
   27.7411  -17.8639  -17.2522 O   0  0  0  0  0  0  0  0  0  0  0  0
   21.3764  -19.2524  -15.0649 N   0  0  0  0  0  0  0  0  0  0  0  0
   20.5589  -19.1592  -13.8639 C   0  0  1  0  0  0  0  0  0  0  0  0
   19.1642  -18.7297  -14.2385 C   0  0  0  0  0  0  0  0  0  0  0  0
   19.1276  -17.3188  -14.7242 C   0  0  0  0  0  0  0  0  0  0  0  0
   17.7144  -16.8917  -15.0232 C   0  0  0  0  0  0  0  0  0  0  0  0
   17.2228  -17.1947  -16.1154 O   0  0  0  0  0  0  0  0  0  0  0  0
   20.6422  -20.2664  -12.9395 C   0  0  0  0  0  0  0  0  0  0  0  0
   20.7566  -21.4594  -13.4635 O   0  0  0  0  0  0  0  0  0  0  0  0
   17.0241  -16.1873  -14.0840 O   0  0  0  0  0  0  0  0  0  0  0  0
   20.6228  -20.2942  -11.5290 N   0  0  0  0  0  0  0  0  0  0  0  0
   20.4804  -19.1134  -10.7009 C   0  0  0  0  0  0  0  0  0  0  0  0
   21.1154  -19.4674   -9.3972 C   0  0  0  0  0  0  0  0  0  0  0  0
   21.4519  -20.9213   -9.4484 C   0  0  0  0  0  0  0  0  0  0  0  0
   20.7035  -21.4216  -10.6762 C   0  0  1  0  0  0  0  0  0  0  0  0
   19.3928  -21.9856  -10.2803 C   0  0  0  0  0  0  0  0  0  0  0  0
   18.2897  -21.4833  -10.5263 O   0  0  0  0  0  0  0  0  0  0  0  0
   19.4125  -23.1855   -9.5700 O   0  0  0  0  0  0  0  0  0  0  0  0
  2  1  1  6
  2  7  1  0
  3  2  1  0
  3  4  1  0
  4  5  1  0
  5  9  1  0
  5  6  2  0
  7  8  2  0
 10  7  1  0
 10 11  1  0
 11 16  1  0
 11 12  1  6
 12 13  1  0
 13 14  1  0
 14 18  1  0
 14 15  2  0
 16 17  2  0
 19 23  1  0
 19 16  1  0
 20 19  1  0
 21 20  1  0
 21 22  1  0
 22 23  1  0
 23 24  1  1
 24 26  1  0
 25 24  2  0
M  END
$$$$
