EEP.pdb
     RDKit          3D

 26 26  0  0  1  0  0  0  0  0999 V2000
   14.6904  -11.7560  -14.6306 N   0  0  0  0  0  0  0  0  0  0  0  0
   15.8194  -11.5993  -13.7111 C   0  0  1  0  0  0  0  0  0  0  0  0
   16.9143  -12.4775  -14.2143 C   0  0  0  0  0  0  0  0  0  0  0  0
   17.3954  -12.1729  -15.5834 C   0  0  0  0  0  0  0  0  0  0  0  0
   18.5059  -13.0069  -16.0501 C   0  0  0  0  0  0  0  0  0  0  0  0
   19.6750  -12.5012  -15.9425 O   0  0  0  0  0  0  0  0  0  0  0  0
   16.1749  -10.1832  -13.6444 C   0  0  0  0  0  0  0  0  0  0  0  0
   16.1232   -9.4463  -14.6611 O   0  0  0  0  0  0  0  0  0  0  0  0
   18.4225  -14.2618  -16.5853 O   0  0  0  0  0  0  0  0  0  0  0  0
   16.5932   -9.5826  -12.4285 N   0  0  0  0  0  0  0  0  0  0  0  0
   17.0124   -8.1903  -12.3586 C   0  0  1  0  0  0  0  0  0  0  0  0
   16.8038   -7.6731  -10.9590 C   0  0  0  0  0  0  0  0  0  0  0  0
   17.2072   -6.2420  -10.8283 C   0  0  0  0  0  0  0  0  0  0  0  0
   16.9331   -5.7331   -9.4373 C   0  0  0  0  0  0  0  0  0  0  0  0
   16.5229   -6.5289   -8.5858 O   0  0  0  0  0  0  0  0  0  0  0  0
   18.2878   -7.8699  -12.9571 C   0  0  0  0  0  0  0  0  0  0  0  0
   19.2441   -8.7490  -12.8035 O   0  0  0  0  0  0  0  0  0  0  0  0
   17.1450   -4.4164   -9.1614 O   0  0  0  0  0  0  0  0  0  0  0  0
   18.7009   -6.7449  -13.7018 N   0  0  0  0  0  0  0  0  0  0  0  0
   17.8726   -5.5768  -13.9249 C   0  0  0  0  0  0  0  0  0  0  0  0
   18.3819   -4.9683  -15.1892 C   0  0  0  0  0  0  0  0  0  0  0  0
   19.6208   -5.7097  -15.5704 C   0  0  0  0  0  0  0  0  0  0  0  0
   19.9521   -6.5220  -14.3261 C   0  0  1  0  0  0  0  0  0  0  0  0
   20.9340   -5.7956  -13.4889 C   0  0  0  0  0  0  0  0  0  0  0  0
   22.1114   -5.5703  -13.7930 O   0  0  0  0  0  0  0  0  0  0  0  0
   20.4850   -5.3289  -12.2538 O   0  0  0  0  0  0  0  0  0  0  0  0
  2  1  1  6
  2  7  1  0
  3  2  1  0
  3  4  1  0
  4  5  1  0
  5  9  1  0
  5  6  2  0
  7  8  2  0
 10  7  1  0
 10 11  1  0
 11 16  1  0
 11 12  1  1
 12 13  1  0
 13 14  1  0
 14 18  1  0
 14 15  2  0
 16 17  2  0
 19 23  1  0
 19 16  1  0
 20 19  1  0
 21 20  1  0
 21 22  1  0
 22 23  1  0
 23 24  1  1
 24 26  1  0
 25 24  2  0
M  END
$$$$
