EEP.pdb
     RDKit          3D

 26 26  0  0  1  0  0  0  0  0999 V2000
   25.4050  -22.4893  -16.8737 N   0  0  0  0  0  0  0  0  0  0  0  0
   26.4202  -21.6403  -16.2467 C   0  0  1  0  0  0  0  0  0  0  0  0
   27.0439  -20.8337  -17.3347 C   0  0  0  0  0  0  0  0  0  0  0  0
   27.7296  -21.6150  -18.3922 C   0  0  0  0  0  0  0  0  0  0  0  0
   28.9201  -22.3455  -17.9498 C   0  0  0  0  0  0  0  0  0  0  0  0
   29.9901  -21.6574  -17.8248 O   0  0  0  0  0  0  0  0  0  0  0  0
   25.7813  -20.8401  -15.2038 C   0  0  0  0  0  0  0  0  0  0  0  0
   26.3982  -19.9156  -14.6173 O   0  0  0  0  0  0  0  0  0  0  0  0
   29.0051  -23.6782  -17.6585 O   0  0  0  0  0  0  0  0  0  0  0  0
   24.4379  -21.0746  -14.8110 N   0  0  0  0  0  0  0  0  0  0  0  0
   23.7896  -20.2915  -13.7690 C   0  0  1  0  0  0  0  0  0  0  0  0
   22.7932  -19.3506  -14.3951 C   0  0  0  0  0  0  0  0  0  0  0  0
   21.4670  -20.0025  -14.6043 C   0  0  0  0  0  0  0  0  0  0  0  0
   20.4665  -19.0183  -15.1513 C   0  0  0  0  0  0  0  0  0  0  0  0
   19.2627  -19.2515  -14.9997 O   0  0  0  0  0  0  0  0  0  0  0  0
   23.3173  -21.0200  -12.6142 C   0  0  0  0  0  0  0  0  0  0  0  0
   22.7660  -22.1841  -12.8414 O   0  0  0  0  0  0  0  0  0  0  0  0
   20.9175  -17.9055  -15.7940 O   0  0  0  0  0  0  0  0  0  0  0  0
   23.3452  -20.6927  -11.2420 N   0  0  0  0  0  0  0  0  0  0  0  0
   23.9150  -19.4682  -10.7163 C   0  0  0  0  0  0  0  0  0  0  0  0
   24.3021  -19.7858   -9.3101 C   0  0  0  0  0  0  0  0  0  0  0  0
   23.7753  -21.1487   -9.0022 C   0  0  0  0  0  0  0  0  0  0  0  0
   22.8243  -21.4366  -10.1557 C   0  0  1  0  0  0  0  0  0  0  0  0
   21.4385  -21.0784   -9.7761 C   0  0  0  0  0  0  0  0  0  0  0  0
   20.8005  -20.1122  -10.2111 O   0  0  0  0  0  0  0  0  0  0  0  0
   20.8059  -21.9058   -8.8489 O   0  0  0  0  0  0  0  0  0  0  0  0
  2  1  1  6
  2  7  1  0
  3  2  1  0
  3  4  1  0
  4  5  1  0
  5  9  1  0
  5  6  2  0
  7  8  2  0
 10  7  1  0
 10 11  1  0
 11 16  1  0
 11 12  1  6
 12 13  1  0
 13 14  1  0
 14 18  1  0
 14 15  2  0
 16 17  2  0
 19 23  1  0
 19 16  1  0
 20 19  1  0
 21 20  1  0
 21 22  1  0
 22 23  1  0
 23 24  1  1
 24 26  1  0
 25 24  2  0
M  END
$$$$
