EEP.pdb
     RDKit          3D

 26 26  0  0  1  0  0  0  0  0999 V2000
   27.8681  -20.5212  -16.9193 N   0  0  0  0  0  0  0  0  0  0  0  0
   27.2925  -19.1749  -16.8913 C   0  0  1  0  0  0  0  0  0  0  0  0
   26.8798  -18.8501  -18.2869 C   0  0  0  0  0  0  0  0  0  0  0  0
   26.1437  -19.9228  -18.9983 C   0  0  0  0  0  0  0  0  0  0  0  0
   26.9634  -20.7565  -19.8812 C   0  0  0  0  0  0  0  0  0  0  0  0
   27.1391  -20.3173  -21.0688 O   0  0  0  0  0  0  0  0  0  0  0  0
   26.1952  -19.1555  -15.9261 C   0  0  0  0  0  0  0  0  0  0  0  0
   25.5599  -18.1000  -15.6778 O   0  0  0  0  0  0  0  0  0  0  0  0
   27.5562  -21.9479  -19.5692 O   0  0  0  0  0  0  0  0  0  0  0  0
   25.8026  -20.3281  -15.2297 N   0  0  0  0  0  0  0  0  0  0  0  0
   24.7612  -20.3105  -14.2127 C   0  0  1  0  0  0  0  0  0  0  0  0
   23.4124  -20.4289  -14.8734 C   0  0  0  0  0  0  0  0  0  0  0  0
   23.1513  -19.2986  -15.8126 C   0  0  0  0  0  0  0  0  0  0  0  0
   21.8321  -19.4809  -16.5166 C   0  0  0  0  0  0  0  0  0  0  0  0
   21.0528  -20.3441  -16.0995 O   0  0  0  0  0  0  0  0  0  0  0  0
   24.9680  -21.1609  -13.0631 C   0  0  0  0  0  0  0  0  0  0  0  0
   25.2399  -22.4172  -13.3053 O   0  0  0  0  0  0  0  0  0  0  0  0
   21.5397  -18.6918  -17.5873 O   0  0  0  0  0  0  0  0  0  0  0  0
   24.9296  -20.8716  -11.6826 N   0  0  0  0  0  0  0  0  0  0  0  0
   24.6248  -19.5624  -11.1411 C   0  0  0  0  0  0  0  0  0  0  0  0
   25.2785  -19.5290   -9.7995 C   0  0  0  0  0  0  0  0  0  0  0  0
   25.7980  -20.9018   -9.5252 C   0  0  0  0  0  0  0  0  0  0  0  0
   25.1392  -21.7576  -10.5982 C   0  0  1  0  0  0  0  0  0  0  0  0
   23.9046  -22.3801  -10.0680 C   0  0  0  0  0  0  0  0  0  0  0  0
   23.8570  -23.2436   -9.1838 O   0  0  0  0  0  0  0  0  0  0  0  0
   22.6970  -21.9506  -10.6175 O   0  0  0  0  0  0  0  0  0  0  0  0
  2  1  1  6
  2  7  1  0
  3  2  1  0
  3  4  1  0
  4  5  1  0
  5  9  1  0
  5  6  2  0
  7  8  2  0
 10  7  1  0
 10 11  1  0
 11 16  1  0
 11 12  1  6
 12 13  1  0
 13 14  1  0
 14 18  1  0
 14 15  2  0
 16 17  2  0
 19 23  1  0
 19 16  1  0
 20 19  1  0
 21 20  1  0
 21 22  1  0
 22 23  1  0
 23 24  1  1
 24 26  1  0
 25 24  2  0
M  END
$$$$
