SCI.pdb
     RDKit          3D

 21 20  0  0  1  0  0  0  0  0999 V2000
   15.2949  -14.8895  -13.1109 O   0  0  0  0  0  0  0  0  0  0  0  0
   15.5476  -13.8610  -14.0364 C   0  0  0  0  0  0  0  0  0  0  0  0
   14.5095  -12.7885  -13.7963 C   0  0  2  0  0  0  0  0  0  0  0  0
   13.1789  -13.2295  -14.0888 N   0  0  0  0  0  0  0  0  0  0  0  0
   14.8717  -11.5396  -14.5150 C   0  0  0  0  0  0  0  0  0  0  0  0
   14.1889  -11.0661  -15.4554 O   0  0  0  0  0  0  0  0  0  0  0  0
   16.0396  -10.8214  -14.1467 N   0  0  0  0  0  0  0  0  0  0  0  0
   16.3994   -9.5228  -14.6131 C   0  0  1  0  0  0  0  0  0  0  0  0
   15.3250   -8.4879  -14.4582 C   0  0  0  0  0  0  0  0  0  0  0  0
   15.9196   -6.8628  -14.9431 S   0  0  0  0  0  0  0  0  0  0  0  0
   17.6666   -9.0291  -13.9907 C   0  0  0  0  0  0  0  0  0  0  0  0
   17.7902   -8.9901  -12.7439 O   0  0  0  0  0  0  0  0  0  0  0  0
   22.2009  -11.2268  -15.1569 C   0  0  0  0  0  0  0  0  0  0  0  0
   20.9702  -10.4833  -14.6150 C   0  0  0  0  0  0  0  0  0  0  0  0
   21.1468   -9.0223  -14.8731 C   0  0  2  0  0  0  0  0  0  0  0  0
   22.4980   -8.6107  -14.3594 C   0  0  0  0  0  0  0  0  0  0  0  0
   20.0245   -8.1773  -14.4086 C   0  0  2  0  0  0  0  0  0  0  0  0
   18.7173   -8.6091  -14.8447 N   0  0  0  0  0  0  0  0  0  0  0  0
   20.1778   -6.7245  -14.6099 C   0  0  0  0  0  0  0  0  0  0  0  0
   20.9100   -5.9776  -13.7104 O   0  0  0  0  0  0  0  0  0  0  0  0
   19.6764   -6.0966  -15.5738 O   0  0  0  0  0  0  0  0  0  0  0  0
  2  1  1  0
  3  2  1  0
  3  4  1  6
  5  3  1  0
  5  6  2  0
  7  5  1  0
  8  7  1  0
  8 11  1  0
  8  9  1  1
 10  9  1  0
 11 18  1  0
 11 12  2  0
 13 14  1  0
 14 15  1  0
 15 16  1  1
 17 15  1  0
 17 18  1  6
 19 20  1  0
 19 17  1  0
 21 19  2  0
M  END
$$$$
