SCI.pdb
     RDKit          3D

 21 20  0  0  1  0  0  0  0  0999 V2000
   24.4025  -25.3510  -16.0970 O   0  0  0  0  0  0  0  0  0  0  0  0
   24.3992  -24.4948  -17.2128 C   0  0  0  0  0  0  0  0  0  0  0  0
   25.0336  -23.1953  -16.7718 C   0  0  2  0  0  0  0  0  0  0  0  0
   26.4033  -23.3506  -16.3843 N   0  0  0  0  0  0  0  0  0  0  0  0
   24.2104  -22.5409  -15.7222 C   0  0  0  0  0  0  0  0  0  0  0  0
   24.7010  -22.0128  -14.6950 O   0  0  0  0  0  0  0  0  0  0  0  0
   22.7978  -22.4923  -15.8550 N   0  0  0  0  0  0  0  0  0  0  0  0
   21.8970  -21.8722  -14.9399 C   0  0  1  0  0  0  0  0  0  0  0  0
   21.6262  -20.4240  -15.2208 C   0  0  0  0  0  0  0  0  0  0  0  0
   20.5800  -20.2325  -16.6694 S   0  0  0  0  0  0  0  0  0  0  0  0
   20.6028  -22.6137  -14.8296 C   0  0  0  0  0  0  0  0  0  0  0  0
   20.1164  -23.1967  -15.8270 O   0  0  0  0  0  0  0  0  0  0  0  0
   17.8515  -26.4835  -11.3276 C   0  0  0  0  0  0  0  0  0  0  0  0
   17.5568  -25.2627  -12.2130 C   0  0  0  0  0  0  0  0  0  0  0  0
   18.8289  -24.5059  -12.4161 C   0  0  2  0  0  0  0  0  0  0  0  0
   19.4346  -24.2276  -11.0690 C   0  0  0  0  0  0  0  0  0  0  0  0
   18.7046  -23.3221  -13.2952 C   0  0  2  0  0  0  0  0  0  0  0  0
   19.9458  -22.6386  -13.5737 N   0  0  0  0  0  0  0  0  0  0  0  0
   17.6550  -22.3513  -12.9339 C   0  0  0  0  0  0  0  0  0  0  0  0
   17.9928  -21.0435  -12.6533 O   0  0  0  0  0  0  0  0  0  0  0  0
   16.4349  -22.6363  -12.8632 O   0  0  0  0  0  0  0  0  0  0  0  0
  2  1  1  0
  3  2  1  0
  3  4  1  1
  5  3  1  0
  5  6  2  0
  7  5  1  0
  8  7  1  0
  8 11  1  0
  8  9  1  6
 10  9  1  0
 11 18  1  0
 11 12  2  0
 13 14  1  0
 14 15  1  0
 15 16  1  1
 17 15  1  0
 17 18  1  1
 19 20  1  0
 19 17  1  0
 21 19  2  0
M  END
$$$$
