SCI.pdb
     RDKit          3D

 21 20  0  0  1  0  0  0  0  0999 V2000
   16.1503  -12.3154  -14.2913 O   0  0  0  0  0  0  0  0  0  0  0  0
   16.8022  -11.2557  -14.9472 C   0  0  0  0  0  0  0  0  0  0  0  0
   15.7515  -10.2108  -15.2464 C   0  0  2  0  0  0  0  0  0  0  0  0
   14.7751  -10.6611  -16.1921 N   0  0  0  0  0  0  0  0  0  0  0  0
   16.3875   -8.9282  -15.6441 C   0  0  0  0  0  0  0  0  0  0  0  0
   16.9056   -8.7395  -16.7714 O   0  0  0  0  0  0  0  0  0  0  0  0
   16.4292   -7.8426  -14.7302 N   0  0  0  0  0  0  0  0  0  0  0  0
   17.0576   -6.5837  -14.9619 C   0  0  1  0  0  0  0  0  0  0  0  0
   16.1429   -5.4015  -14.8389 C   0  0  0  0  0  0  0  0  0  0  0  0
   14.6912   -5.5979  -15.8798 S   0  0  0  0  0  0  0  0  0  0  0  0
   18.2588   -6.3826  -14.0939 C   0  0  0  0  0  0  0  0  0  0  0  0
   18.1877   -6.5674  -12.8561 O   0  0  0  0  0  0  0  0  0  0  0  0
   22.3333   -9.2551  -14.4891 C   0  0  0  0  0  0  0  0  0  0  0  0
   21.2455   -8.2663  -14.0421 C   0  0  0  0  0  0  0  0  0  0  0  0
   21.7317   -6.8774  -14.3008 C   0  0  2  0  0  0  0  0  0  0  0  0
   23.0492   -6.6987  -13.6000 C   0  0  0  0  0  0  0  0  0  0  0  0
   20.7359   -5.8179  -14.0260 C   0  0  2  0  0  0  0  0  0  0  0  0
   19.4724   -5.9799  -14.7060 N   0  0  0  0  0  0  0  0  0  0  0  0
   21.2127   -4.4284  -14.1549 C   0  0  0  0  0  0  0  0  0  0  0  0
   20.8874   -3.6891  -15.2733 O   0  0  0  0  0  0  0  0  0  0  0  0
   21.9142   -3.8481  -13.2913 O   0  0  0  0  0  0  0  0  0  0  0  0
  2  1  1  0
  3  2  1  0
  3  4  1  6
  5  3  1  0
  5  6  2  0
  7  5  1  0
  8  7  1  0
  8 11  1  0
  8  9  1  1
 10  9  1  0
 11 18  1  0
 11 12  2  0
 13 14  1  0
 14 15  1  0
 15 16  1  1
 17 15  1  0
 17 18  1  6
 19 20  1  0
 19 17  1  0
 21 19  2  0
M  END
$$$$
