SCI.pdb
     RDKit          3D

 21 20  0  0  1  0  0  0  0  0999 V2000
   16.3640  -12.9895  -17.0033 O   0  0  0  0  0  0  0  0  0  0  0  0
   16.2850  -11.6034  -16.7789 C   0  0  0  0  0  0  0  0  0  0  0  0
   17.1008  -11.3112  -15.5401 C   0  0  2  0  0  0  0  0  0  0  0  0
   16.5297  -11.8753  -14.3544 N   0  0  0  0  0  0  0  0  0  0  0  0
   17.3592   -9.8533  -15.4156 C   0  0  0  0  0  0  0  0  0  0  0  0
   17.8687   -9.1658  -16.3334 O   0  0  0  0  0  0  0  0  0  0  0  0
   17.0262   -9.1729  -14.2150 N   0  0  0  0  0  0  0  0  0  0  0  0
   17.2364   -7.7859  -13.9590 C   0  0  1  0  0  0  0  0  0  0  0  0
   16.1762   -7.1428  -13.1155 C   0  0  0  0  0  0  0  0  0  0  0  0
   14.5468   -7.3796  -13.8357 S   0  0  0  0  0  0  0  0  0  0  0  0
   18.5827   -7.5179  -13.3654 C   0  0  0  0  0  0  0  0  0  0  0  0
   18.9420   -8.0989  -12.3144 O   0  0  0  0  0  0  0  0  0  0  0  0
   23.8046   -8.4446  -15.3095 C   0  0  0  0  0  0  0  0  0  0  0  0
   23.1343   -7.3518  -14.4624 C   0  0  0  0  0  0  0  0  0  0  0  0
   21.6619   -7.3943  -14.7122 C   0  0  2  0  0  0  0  0  0  0  0  0
   21.4256   -7.2040  -16.1842 C   0  0  0  0  0  0  0  0  0  0  0  0
   20.8655   -6.5052  -13.8377 C   0  0  2  0  0  0  0  0  0  0  0  0
   19.4358   -6.5943  -14.0202 N   0  0  0  0  0  0  0  0  0  0  0  0
   21.2886   -5.0934  -13.7876 C   0  0  0  0  0  0  0  0  0  0  0  0
   22.4748   -4.7509  -13.1721 O   0  0  0  0  0  0  0  0  0  0  0  0
   20.6279   -4.1486  -14.2831 O   0  0  0  0  0  0  0  0  0  0  0  0
  2  1  1  0
  3  2  1  0
  3  4  1  1
  5  3  1  0
  5  6  2  0
  7  5  1  0
  8  7  1  0
  8 11  1  0
  8  9  1  1
 10  9  1  0
 11 18  1  0
 11 12  2  0
 13 14  1  0
 14 15  1  0
 15 16  1  6
 17 15  1  0
 17 18  1  6
 19 20  1  0
 19 17  1  0
 21 19  2  0
M  END
$$$$
