SCI.pdb
     RDKit          3D

 21 20  0  0  1  0  0  0  0  0999 V2000
   28.2003  -16.6917  -18.2145 O   0  0  0  0  0  0  0  0  0  0  0  0
   27.7830  -16.9535  -16.8971 C   0  0  0  0  0  0  0  0  0  0  0  0
   26.4971  -16.1879  -16.6827 C   0  0  2  0  0  0  0  0  0  0  0  0
   26.7198  -14.8275  -16.2954 N   0  0  0  0  0  0  0  0  0  0  0  0
   25.6063  -16.9147  -15.7415 C   0  0  0  0  0  0  0  0  0  0  0  0
   25.5513  -16.6607  -14.5139 O   0  0  0  0  0  0  0  0  0  0  0  0
   24.7633  -17.9522  -16.2193 N   0  0  0  0  0  0  0  0  0  0  0  0
   23.9788  -18.8258  -15.4100 C   0  0  1  0  0  0  0  0  0  0  0  0
   22.7830  -19.4076  -16.1036 C   0  0  0  0  0  0  0  0  0  0  0  0
   22.0287  -20.7027  -15.1120 S   0  0  0  0  0  0  0  0  0  0  0  0
   24.7952  -19.9250  -14.8082 C   0  0  0  0  0  0  0  0  0  0  0  0
   25.6752  -20.5077  -15.4845 O   0  0  0  0  0  0  0  0  0  0  0  0
   25.7072  -19.7205   -9.3082 C   0  0  0  0  0  0  0  0  0  0  0  0
   25.9619  -19.8977  -10.8131 C   0  0  0  0  0  0  0  0  0  0  0  0
   25.2749  -21.1445  -11.2669 C   0  0  2  0  0  0  0  0  0  0  0  0
   25.8475  -22.3054  -10.5032 C   0  0  0  0  0  0  0  0  0  0  0  0
   25.2405  -21.3262  -12.7350 C   0  0  2  0  0  0  0  0  0  0  0  0
   24.5477  -20.2872  -13.4602 N   0  0  0  0  0  0  0  0  0  0  0  0
   24.8191  -22.6550  -13.2160 C   0  0  0  0  0  0  0  0  0  0  0  0
   25.7643  -23.6258  -13.4752 O   0  0  0  0  0  0  0  0  0  0  0  0
   23.6227  -22.9797  -13.4109 O   0  0  0  0  0  0  0  0  0  0  0  0
  2  1  1  0
  3  2  1  0
  3  4  1  1
  5  3  1  0
  5  6  2  0
  7  5  1  0
  8  7  1  0
  8 11  1  0
  8  9  1  6
 10  9  1  0
 11 18  1  0
 11 12  2  0
 13 14  1  0
 14 15  1  0
 15 16  1  1
 17 15  1  0
 17 18  1  6
 19 20  1  0
 19 17  1  0
 21 19  2  0
M  END
$$$$
