SCI.pdb
     RDKit          3D

 21 20  0  0  1  0  0  0  0  0999 V2000
   12.8773  -12.6321  -13.5936 O   0  0  0  0  0  0  0  0  0  0  0  0
   13.9167  -12.0592  -12.8389 C   0  0  0  0  0  0  0  0  0  0  0  0
   14.9957  -11.6504  -13.8158 C   0  0  2  0  0  0  0  0  0  0  0  0
   15.5930  -12.7683  -14.4819 N   0  0  0  0  0  0  0  0  0  0  0  0
   15.9966  -10.7746  -13.1533 C   0  0  0  0  0  0  0  0  0  0  0  0
   17.1689  -11.1426  -12.8986 O   0  0  0  0  0  0  0  0  0  0  0  0
   15.6444   -9.4519  -12.7766 N   0  0  0  0  0  0  0  0  0  0  0  0
   16.5358   -8.4718  -12.2493 C   0  0  1  0  0  0  0  0  0  0  0  0
   17.5280   -7.9385  -13.2395 C   0  0  0  0  0  0  0  0  0  0  0  0
   18.9170   -9.0627  -13.4303 S   0  0  0  0  0  0  0  0  0  0  0  0
   15.8091   -7.3352  -11.6036 C   0  0  0  0  0  0  0  0  0  0  0  0
   14.6710   -6.9969  -12.0056 O   0  0  0  0  0  0  0  0  0  0  0  0
   12.3707   -5.5082   -8.3198 C   0  0  0  0  0  0  0  0  0  0  0  0
   13.8749   -5.3630   -8.0418 C   0  0  0  0  0  0  0  0  0  0  0  0
   14.6131   -6.3309   -8.9082 C   0  0  2  0  0  0  0  0  0  0  0  0
   14.9096   -7.5613   -8.0976 C   0  0  0  0  0  0  0  0  0  0  0  0
   15.7815   -5.7569   -9.6116 C   0  0  2  0  0  0  0  0  0  0  0  0
   16.4393   -6.6553  -10.5310 N   0  0  0  0  0  0  0  0  0  0  0  0
   16.7760   -5.0698   -8.7668 C   0  0  0  0  0  0  0  0  0  0  0  0
   16.5376   -3.7834   -8.3293 O   0  0  0  0  0  0  0  0  0  0  0  0
   17.8590   -5.5881   -8.4016 O   0  0  0  0  0  0  0  0  0  0  0  0
  2  1  1  0
  3  2  1  0
  3  4  1  1
  5  3  1  0
  5  6  2  0
  7  5  1  0
  8  7  1  0
  8 11  1  0
  8  9  1  6
 10  9  1  0
 11 18  1  0
 11 12  2  0
 13 14  1  0
 14 15  1  0
 15 16  1  1
 17 15  1  0
 17 18  1  1
 19 20  1  0
 19 17  1  0
 21 19  2  0
M  END
$$$$
