SCI.pdb
     RDKit          3D

 21 20  0  0  1  0  0  0  0  0999 V2000
   15.4842  -14.5919  -14.2605 O   0  0  0  0  0  0  0  0  0  0  0  0
   16.5580  -13.8009  -14.7068 C   0  0  0  0  0  0  0  0  0  0  0  0
   16.2235  -13.3585  -16.1132 C   0  0  2  0  0  0  0  0  0  0  0  0
   16.1572  -14.4505  -17.0370 N   0  0  0  0  0  0  0  0  0  0  0  0
   17.1496  -12.2851  -16.5582 C   0  0  0  0  0  0  0  0  0  0  0  0
   18.1699  -12.5042  -17.2551 O   0  0  0  0  0  0  0  0  0  0  0  0
   16.8990  -10.9355  -16.1960 N   0  0  0  0  0  0  0  0  0  0  0  0
   17.6969   -9.8130  -16.5659 C   0  0  1  0  0  0  0  0  0  0  0  0
   16.9128   -8.5902  -16.9392 C   0  0  0  0  0  0  0  0  0  0  0  0
   15.7415   -8.9512  -18.2535 S   0  0  0  0  0  0  0  0  0  0  0  0
   18.7034   -9.4639  -15.5162 C   0  0  0  0  0  0  0  0  0  0  0  0
   18.3820   -9.4534  -14.3046 O   0  0  0  0  0  0  0  0  0  0  0  0
   23.1748  -12.0373  -15.0108 C   0  0  0  0  0  0  0  0  0  0  0  0
   21.8989  -11.1898  -14.8891 C   0  0  0  0  0  0  0  0  0  0  0  0
   22.2613   -9.7549  -15.0941 C   0  0  2  0  0  0  0  0  0  0  0  0
   23.3929   -9.4149  -14.1652 C   0  0  0  0  0  0  0  0  0  0  0  0
   21.1158   -8.8195  -15.0421 C   0  0  2  0  0  0  0  0  0  0  0  0
   20.0227   -9.1471  -15.9270 N   0  0  0  0  0  0  0  0  0  0  0  0
   21.4428   -7.3850  -15.1410 C   0  0  0  0  0  0  0  0  0  0  0  0
   21.8799   -6.6993  -14.0265 O   0  0  0  0  0  0  0  0  0  0  0  0
   21.3525   -6.7199  -16.2013 O   0  0  0  0  0  0  0  0  0  0  0  0
  2  1  1  0
  3  2  1  0
  3  4  1  6
  5  3  1  0
  5  6  2  0
  7  5  1  0
  8  7  1  0
  8 11  1  0
  8  9  1  1
 10  9  1  0
 11 18  1  0
 11 12  2  0
 13 14  1  0
 14 15  1  0
 15 16  1  1
 17 15  1  0
 17 18  1  6
 19 20  1  0
 19 17  1  0
 21 19  2  0
M  END
$$$$
