TYC.pdb
     RDKit          3D

 26 26  0  0  1  0  0  0  0  0999 V2000
   27.7245  -24.3874  -16.8226 C   0  0  0  0  0  0  0  0  0  0  0  0
   26.5160  -23.5675  -16.5011 C   0  0  1  0  0  0  0  0  0  0  0  0
   25.6702  -23.5262  -17.5818 O   0  0  0  0  0  0  0  0  0  0  0  0
   25.8398  -23.9687  -15.2123 C   0  0  2  0  0  0  0  0  0  0  0  0
   25.2697  -25.2895  -15.3823 N   0  0  0  0  0  0  0  0  0  0  0  0
   24.7923  -23.0444  -14.7783 C   0  0  0  0  0  0  0  0  0  0  0  0
   23.5854  -23.3950  -14.7794 O   0  0  0  0  0  0  0  0  0  0  0  0
   23.7845  -21.2749   -7.5732 O   0  0  0  0  0  0  0  0  0  0  0  0
   23.9758  -20.9078   -8.8906 C   0  0  0  0  0  0  0  0  0  0  0  0
   22.9262  -20.5190   -9.7078 C   0  0  0  0  0  0  0  0  0  0  0  0
   23.1182  -20.1528  -11.0225 C   0  0  0  0  0  0  0  0  0  0  0  0
   24.3803  -20.1679  -11.5552 C   0  0  0  0  0  0  0  0  0  0  0  0
   24.6418  -19.7884  -12.9459 C   0  0  0  0  0  0  0  0  0  0  0  0
   24.0200  -20.7941  -13.9257 C   0  0  2  0  0  0  0  0  0  0  0  0
   25.0568  -21.7077  -14.3319 N   0  0  0  0  0  0  0  0  0  0  0  0
   23.4009  -20.0910  -15.0724 C   0  0  0  0  0  0  0  0  0  0  0  0
   24.0922  -19.4875  -15.9508 O   0  0  0  0  0  0  0  0  0  0  0  0
   25.4386  -20.5602  -10.7306 C   0  0  0  0  0  0  0  0  0  0  0  0
   25.2454  -20.9226   -9.4278 C   0  0  0  0  0  0  0  0  0  0  0  0
   21.9901  -20.0629  -15.2384 N   0  0  0  0  0  0  0  0  0  0  0  0
   21.3509  -19.3206  -16.3219 C   0  0  1  0  0  0  0  0  0  0  0  0
   21.2160  -20.2667  -17.5019 C   0  0  0  0  0  0  0  0  0  0  0  0
   20.5778  -19.3889  -18.9528 S   0  0  0  0  0  0  0  0  0  0  0  0
   20.0693  -18.7417  -15.9178 C   0  0  0  0  0  0  0  0  0  0  0  0
   19.5242  -17.7434  -16.7100 O   0  0  0  0  0  0  0  0  0  0  0  0
   19.4268  -19.0975  -14.8868 O   0  0  0  0  0  0  0  0  0  0  0  0
  2  1  1  6
  3  2  1  0
  4  2  1  0
  4  5  1  6
  6  7  2  0
  6  4  1  0
  8  9  1  0
  9 10  2  0
 10 11  1  0
 12 11  2  0
 12 13  1  0
 14 13  1  1
 14 15  1  0
 15  6  1  0
 16 17  2  0
 16 14  1  0
 18 12  1  0
 19  9  1  0
 19 18  2  0
 20 16  1  0
 21 20  1  0
 21 22  1  6
 23 22  1  0
 24 21  1  0
 25 24  1  0
 26 24  2  0
M  END
$$$$
