TYC.pdb
     RDKit          3D

 26 26  0  0  1  0  0  0  0  0999 V2000
   28.6330  -21.1039  -19.4974 C   0  0  0  0  0  0  0  0  0  0  0  0
   27.7389  -21.3590  -18.3264 C   0  0  1  0  0  0  0  0  0  0  0  0
   26.5737  -21.9552  -18.7409 O   0  0  0  0  0  0  0  0  0  0  0  0
   28.4229  -22.0810  -17.1906 C   0  0  2  0  0  0  0  0  0  0  0  0
   28.7866  -23.4089  -17.6407 N   0  0  0  0  0  0  0  0  0  0  0  0
   27.6094  -22.1890  -15.9796 C   0  0  0  0  0  0  0  0  0  0  0  0
   26.9979  -23.2532  -15.7094 O   0  0  0  0  0  0  0  0  0  0  0  0
   24.0938  -20.5678   -8.0765 O   0  0  0  0  0  0  0  0  0  0  0  0
   24.8103  -20.4635   -9.2524 C   0  0  0  0  0  0  0  0  0  0  0  0
   24.4277  -19.6112  -10.2760 C   0  0  0  0  0  0  0  0  0  0  0  0
   25.1435  -19.5079  -11.4492 C   0  0  0  0  0  0  0  0  0  0  0  0
   26.2719  -20.2644  -11.6262 C   0  0  0  0  0  0  0  0  0  0  0  0
   27.0705  -20.1943  -12.8525 C   0  0  0  0  0  0  0  0  0  0  0  0
   26.5652  -21.1907  -13.9060 C   0  0  2  0  0  0  0  0  0  0  0  0
   27.4535  -21.1195  -15.0375 N   0  0  0  0  0  0  0  0  0  0  0  0
   25.1593  -20.8994  -14.2680 C   0  0  0  0  0  0  0  0  0  0  0  0
   24.8398  -19.9190  -15.0100 O   0  0  0  0  0  0  0  0  0  0  0  0
   26.6573  -21.1238  -10.5935 C   0  0  0  0  0  0  0  0  0  0  0  0
   25.9460  -21.2243   -9.4317 C   0  0  0  0  0  0  0  0  0  0  0  0
   24.0973  -21.7154  -13.7937 N   0  0  0  0  0  0  0  0  0  0  0  0
   22.7021  -21.4482  -14.1334 C   0  0  1  0  0  0  0  0  0  0  0  0
   22.0953  -22.7529  -14.6182 C   0  0  0  0  0  0  0  0  0  0  0  0
   23.0056  -23.3856  -16.0513 S   0  0  0  0  0  0  0  0  0  0  0  0
   21.9599  -20.8658  -13.0149 C   0  0  0  0  0  0  0  0  0  0  0  0
   20.6477  -20.4763  -13.2333 O   0  0  0  0  0  0  0  0  0  0  0  0
   22.4440  -20.6958  -11.8578 O   0  0  0  0  0  0  0  0  0  0  0  0
  2  1  1  6
  3  2  1  0
  4  2  1  0
  4  5  1  6
  6  7  2  0
  6  4  1  0
  8  9  1  0
  9 10  2  0
 10 11  1  0
 12 11  2  0
 12 13  1  0
 14 13  1  1
 14 15  1  0
 15  6  1  0
 16 17  2  0
 16 14  1  0
 18 12  1  0
 19  9  1  0
 19 18  2  0
 20 16  1  0
 21 20  1  0
 21 22  1  1
 23 22  1  0
 24 21  1  0
 25 24  1  0
 26 24  2  0
M  END
$$$$
