TYC.pdb
     RDKit          3D

 26 26  0  0  1  0  0  0  0  0999 V2000
   16.8600  -12.5746  -14.4741 C   0  0  0  0  0  0  0  0  0  0  0  0
   17.5436  -11.2910  -14.8221 C   0  0  1  0  0  0  0  0  0  0  0  0
   18.8856  -11.3790  -14.5461 O   0  0  0  0  0  0  0  0  0  0  0  0
   17.2385  -10.8038  -16.2180 C   0  0  2  0  0  0  0  0  0  0  0  0
   17.7494  -11.7721  -17.1664 N   0  0  0  0  0  0  0  0  0  0  0  0
   17.7997   -9.4879  -16.5238 C   0  0  0  0  0  0  0  0  0  0  0  0
   18.7229   -9.3637  -17.3675 O   0  0  0  0  0  0  0  0  0  0  0  0
   14.3542   -7.4794  -21.5026 O   0  0  0  0  0  0  0  0  0  0  0  0
   14.9385   -7.1201  -20.3040 C   0  0  0  0  0  0  0  0  0  0  0  0
   15.9302   -6.1552  -20.2269 C   0  0  0  0  0  0  0  0  0  0  0  0
   16.5127   -5.7973  -19.0302 C   0  0  0  0  0  0  0  0  0  0  0  0
   16.1106   -6.4046  -17.8698 C   0  0  0  0  0  0  0  0  0  0  0  0
   16.6952   -6.0630  -16.5706 C   0  0  0  0  0  0  0  0  0  0  0  0
   17.8808   -6.9787  -16.2333 C   0  0  2  0  0  0  0  0  0  0  0  0
   17.3511   -8.2764  -15.9018 N   0  0  0  0  0  0  0  0  0  0  0  0
   18.6926   -6.3996  -15.1387 C   0  0  0  0  0  0  0  0  0  0  0  0
   18.4501   -6.6398  -13.9151 O   0  0  0  0  0  0  0  0  0  0  0  0
   15.1103   -7.3777  -17.9481 C   0  0  0  0  0  0  0  0  0  0  0  0
   14.5347   -7.7305  -19.1356 C   0  0  0  0  0  0  0  0  0  0  0  0
   19.7898   -5.5409  -15.4168 N   0  0  0  0  0  0  0  0  0  0  0  0
   20.6593   -5.0263  -14.3619 C   0  0  1  0  0  0  0  0  0  0  0  0
   21.7619   -6.0473  -14.1444 C   0  0  0  0  0  0  0  0  0  0  0  0
   22.9999   -5.4112  -12.9846 S   0  0  0  0  0  0  0  0  0  0  0  0
   21.1809   -3.6950  -14.6724 C   0  0  0  0  0  0  0  0  0  0  0  0
   21.5336   -2.8686  -13.6169 O   0  0  0  0  0  0  0  0  0  0  0  0
   21.3300   -3.2510  -15.8483 O   0  0  0  0  0  0  0  0  0  0  0  0
  2  1  1  6
  3  2  1  0
  4  2  1  0
  4  5  1  6
  6  7  2  0
  6  4  1  0
  8  9  1  0
  9 10  2  0
 10 11  1  0
 12 11  2  0
 12 13  1  0
 14 13  1  1
 14 15  1  0
 15  6  1  0
 16 17  2  0
 16 14  1  0
 18 12  1  0
 19  9  1  0
 19 18  2  0
 20 16  1  0
 21 20  1  0
 21 22  1  6
 23 22  1  0
 24 21  1  0
 25 24  1  0
 26 24  2  0
M  END
$$$$
