TYC.pdb
     RDKit          3D

 26 26  0  0  1  0  0  0  0  0999 V2000
   27.1390  -11.0779  -14.9911 C   0  0  0  0  0  0  0  0  0  0  0  0
   25.9581  -10.2513  -15.3887 C   0  0  1  0  0  0  0  0  0  0  0  0
   26.2857   -9.4324  -16.4409 O   0  0  0  0  0  0  0  0  0  0  0  0
   24.7032  -11.0600  -15.6130 C   0  0  2  0  0  0  0  0  0  0  0  0
   24.8967  -11.8982  -16.7783 N   0  0  0  0  0  0  0  0  0  0  0  0
   23.4993  -10.2496  -15.7973 C   0  0  0  0  0  0  0  0  0  0  0  0
   23.0055  -10.0839  -16.9411 O   0  0  0  0  0  0  0  0  0  0  0  0
   18.1686  -13.3793  -17.5367 O   0  0  0  0  0  0  0  0  0  0  0  0
   18.7414  -12.4275  -16.7164 C   0  0  0  0  0  0  0  0  0  0  0  0
   19.6753  -12.7554  -15.7464 C   0  0  0  0  0  0  0  0  0  0  0  0
   20.2464  -11.8047  -14.9282 C   0  0  0  0  0  0  0  0  0  0  0  0
   19.8911  -10.4886  -15.0641 C   0  0  0  0  0  0  0  0  0  0  0  0
   20.4664   -9.4370  -14.2218 C   0  0  0  0  0  0  0  0  0  0  0  0
   21.6603   -8.7601  -14.9106 C   0  0  2  0  0  0  0  0  0  0  0  0
   22.8124   -9.6027  -14.7177 N   0  0  0  0  0  0  0  0  0  0  0  0
   21.8616   -7.3921  -14.3808 C   0  0  0  0  0  0  0  0  0  0  0  0
   22.2960   -7.1773  -13.2065 O   0  0  0  0  0  0  0  0  0  0  0  0
   18.9491  -10.1584  -16.0425 C   0  0  0  0  0  0  0  0  0  0  0  0
   18.3847  -11.1027  -16.8522 C   0  0  0  0  0  0  0  0  0  0  0  0
   21.5732   -6.2499  -15.1750 N   0  0  0  0  0  0  0  0  0  0  0  0
   21.7875   -4.8904  -14.6859 C   0  0  1  0  0  0  0  0  0  0  0  0
   22.5280   -4.1292  -15.7712 C   0  0  0  0  0  0  0  0  0  0  0  0
   22.6502   -2.3720  -15.3472 S   0  0  0  0  0  0  0  0  0  0  0  0
   20.5377   -4.2371  -14.2956 C   0  0  0  0  0  0  0  0  0  0  0  0
   19.3891   -4.5455  -15.0075 O   0  0  0  0  0  0  0  0  0  0  0  0
   20.4414   -3.4060  -13.3459 O   0  0  0  0  0  0  0  0  0  0  0  0
  2  1  1  6
  3  2  1  0
  4  2  1  0
  4  5  1  6
  6  7  2  0
  6  4  1  0
  8  9  1  0
  9 10  2  0
 10 11  1  0
 12 11  2  0
 12 13  1  0
 14 13  1  1
 14 15  1  0
 15  6  1  0
 16 17  2  0
 16 14  1  0
 18 12  1  0
 19  9  1  0
 19 18  2  0
 20 16  1  0
 21 20  1  0
 21 22  1  6
 23 22  1  0
 24 21  1  0
 25 24  1  0
 26 24  2  0
M  END
$$$$
