TYC.pdb
     RDKit          3D

 26 26  0  0  1  0  0  0  0  0999 V2000
   26.2761  -10.6534  -14.8723 C   0  0  0  0  0  0  0  0  0  0  0  0
   27.0274  -10.5804  -16.1631 C   0  0  1  0  0  0  0  0  0  0  0  0
   28.2454  -11.2016  -16.0382 O   0  0  0  0  0  0  0  0  0  0  0  0
   26.2256  -11.0440  -17.3553 C   0  0  2  0  0  0  0  0  0  0  0  0
   27.0644  -10.9662  -18.5336 N   0  0  0  0  0  0  0  0  0  0  0  0
   25.0020  -10.2754  -17.5836 C   0  0  0  0  0  0  0  0  0  0  0  0
   25.0315   -9.1982  -18.2303 O   0  0  0  0  0  0  0  0  0  0  0  0
   16.5664   -7.8304  -17.9766 O   0  0  0  0  0  0  0  0  0  0  0  0
   17.7259   -8.5541  -17.7797 C   0  0  0  0  0  0  0  0  0  0  0  0
   18.0986   -9.0243  -16.5305 C   0  0  0  0  0  0  0  0  0  0  0  0
   19.2560   -9.7465  -16.3349 C   0  0  0  0  0  0  0  0  0  0  0  0
   20.0762  -10.0176  -17.3982 C   0  0  0  0  0  0  0  0  0  0  0  0
   21.3177  -10.7806  -17.2478 C   0  0  0  0  0  0  0  0  0  0  0  0
   22.5406   -9.8533  -17.1960 C   0  0  2  0  0  0  0  0  0  0  0  0
   23.7147  -10.6821  -17.1006 N   0  0  0  0  0  0  0  0  0  0  0  0
   22.4251   -8.8997  -16.0692 C   0  0  0  0  0  0  0  0  0  0  0  0
   22.6633   -9.2378  -14.8680 O   0  0  0  0  0  0  0  0  0  0  0  0
   19.6999   -9.5431  -18.6580 C   0  0  0  0  0  0  0  0  0  0  0  0
   18.5521   -8.8275  -18.8490 C   0  0  0  0  0  0  0  0  0  0  0  0
   22.0380   -7.5504  -16.2891 N   0  0  0  0  0  0  0  0  0  0  0  0
   21.9109   -6.5914  -15.1947 C   0  0  1  0  0  0  0  0  0  0  0  0
   23.1351   -5.6940  -15.2334 C   0  0  0  0  0  0  0  0  0  0  0  0
   23.0281   -4.4144  -13.9552 S   0  0  0  0  0  0  0  0  0  0  0  0
   20.6594   -5.8361  -15.2609 C   0  0  0  0  0  0  0  0  0  0  0  0
   20.0326   -5.5041  -14.0701 O   0  0  0  0  0  0  0  0  0  0  0  0
   20.1133   -5.4666  -16.3414 O   0  0  0  0  0  0  0  0  0  0  0  0
  2  1  1  1
  3  2  1  0
  4  2  1  0
  4  5  1  6
  6  7  2  0
  6  4  1  0
  8  9  1  0
  9 10  2  0
 10 11  1  0
 12 11  2  0
 12 13  1  0
 14 13  1  1
 14 15  1  0
 15  6  1  0
 16 17  2  0
 16 14  1  0
 18 12  1  0
 19  9  1  0
 19 18  2  0
 20 16  1  0
 21 20  1  0
 21 22  1  6
 23 22  1  0
 24 21  1  0
 25 24  1  0
 26 24  2  0
M  END
$$$$
