NTP.pdb
     RDKit          3D

 23 23  0  0  1  0  0  0  0  0999 V2000
    8.8826  -12.7484   17.1628 N   0  0  0  0  0  0  0  0  0  0  0  0
    8.2947  -13.9141   17.7192 C   0  0  0  0  0  0  0  0  0  0  0  0
    8.4792  -14.9980   17.0884 O   0  0  0  0  0  0  0  0  0  0  0  0
    7.4970  -13.8732   18.9845 C   0  0  0  0  0  0  0  0  0  0  0  0
    8.4536  -14.0133   20.1494 C   0  0  2  0  0  0  0  0  0  0  0  0
    9.4898  -14.9868   19.8685 N   0  0  0  0  0  0  0  0  0  0  0  0
    7.7495  -14.2777   21.4085 C   0  0  0  0  0  0  0  0  0  0  0  0
    6.7285  -13.5941   21.6678 O   0  0  0  0  0  0  0  0  0  0  0  0
    6.3433  -17.0300   25.1112 C   0  0  0  0  0  0  0  0  0  0  0  0
    7.1662  -16.9265   23.8679 C   0  0  1  0  0  0  0  0  0  0  0  0
    6.4979  -17.4922   22.8142 O   0  0  0  0  0  0  0  0  0  0  0  0
    7.5313  -15.4663   23.6177 C   0  0  2  0  0  0  0  0  0  0  0  0
    8.1637  -15.2735   22.3582 N   0  0  0  0  0  0  0  0  0  0  0  0
    8.1253  -14.8367   24.7930 C   0  0  0  0  0  0  0  0  0  0  0  0
    9.2405  -15.3763   25.1710 O   0  0  0  0  0  0  0  0  0  0  0  0
    7.6658  -13.7512   25.5583 N   0  0  0  0  0  0  0  0  0  0  0  0
    6.4964  -12.9802   25.1911 C   0  0  0  0  0  0  0  0  0  0  0  0
    6.3275  -11.9202   26.2782 C   0  0  0  0  0  0  0  0  0  0  0  0
    6.9661  -12.6100   27.4451 C   0  0  0  0  0  0  0  0  0  0  0  0
    8.2138  -13.2183   26.7734 C   0  0  1  0  0  0  0  0  0  0  0  0
    8.8227  -14.1914   27.6925 C   0  0  0  0  0  0  0  0  0  0  0  0
    8.3119  -15.4873   27.6339 O   0  0  0  0  0  0  0  0  0  0  0  0
    9.7367  -13.9796   28.5083 O   0  0  0  0  0  0  0  0  0  0  0  0
  2  4  1  0
  2  1  1  0
  3  2  2  0
  4  5  1  0
  5  7  1  0
  5  6  1  6
  7  8  2  0
 10  9  1  1
 10 11  1  0
 10 12  1  0
 12 14  1  0
 12 13  1  6
 13  7  1  0
 14 16  1  0
 14 15  2  0
 16 17  1  0
 17 18  1  0
 19 18  1  0
 20 16  1  0
 20 19  1  0
 20 21  1  1
 22 21  1  0
 23 21  2  0
M  END
$$$$
