NTP.pdb
     RDKit          3D

 23 23  0  0  1  0  0  0  0  0999 V2000
   14.5648  -16.6289   19.3745 N   0  0  0  0  0  0  0  0  0  0  0  0
   13.1894  -16.9392   19.5358 C   0  0  0  0  0  0  0  0  0  0  0  0
   12.7690  -17.9764   18.9404 O   0  0  0  0  0  0  0  0  0  0  0  0
   12.2769  -16.0906   20.3642 C   0  0  0  0  0  0  0  0  0  0  0  0
   11.8055  -16.9164   21.5421 C   0  0  2  0  0  0  0  0  0  0  0  0
   11.0978  -18.1036   21.1061 N   0  0  0  0  0  0  0  0  0  0  0  0
   11.0379  -16.1154   22.5012 C   0  0  0  0  0  0  0  0  0  0  0  0
   11.2725  -14.8832   22.5615 O   0  0  0  0  0  0  0  0  0  0  0  0
    7.3338  -15.4828   22.9657 C   0  0  0  0  0  0  0  0  0  0  0  0
    7.8249  -16.0690   24.2498 C   0  0  1  0  0  0  0  0  0  0  0  0
    7.4376  -17.3796   24.3458 O   0  0  0  0  0  0  0  0  0  0  0  0
    9.3375  -15.8937   24.3453 C   0  0  2  0  0  0  0  0  0  0  0  0
   10.0350  -16.6627   23.3730 N   0  0  0  0  0  0  0  0  0  0  0  0
    9.8114  -15.9305   25.7255 C   0  0  0  0  0  0  0  0  0  0  0  0
   10.2514  -17.0900   26.0992 O   0  0  0  0  0  0  0  0  0  0  0  0
    9.8543  -14.9066   26.6871 N   0  0  0  0  0  0  0  0  0  0  0  0
    9.5383  -13.5291   26.3714 C   0  0  0  0  0  0  0  0  0  0  0  0
    9.6833  -12.7496   27.6772 C   0  0  0  0  0  0  0  0  0  0  0  0
    9.3956  -13.8251   28.6802 C   0  0  0  0  0  0  0  0  0  0  0  0
   10.1921  -15.0008   28.0791 C   0  0  1  0  0  0  0  0  0  0  0  0
    9.7959  -16.2422   28.7607 C   0  0  0  0  0  0  0  0  0  0  0  0
   10.4476  -16.5117   29.9634 O   0  0  0  0  0  0  0  0  0  0  0  0
    8.9483  -17.0677   28.3789 O   0  0  0  0  0  0  0  0  0  0  0  0
  2  4  1  0
  2  1  1  0
  3  2  2  0
  4  5  1  0
  5  7  1  0
  5  6  1  6
  7  8  2  0
 10  9  1  6
 10 11  1  0
 10 12  1  0
 12 14  1  0
 12 13  1  6
 13  7  1  0
 14 16  1  0
 14 15  2  0
 16 17  1  0
 17 18  1  0
 19 18  1  0
 20 16  1  0
 20 19  1  0
 20 21  1  1
 22 21  1  0
 23 21  2  0
M  END
$$$$
