NTP.pdb
     RDKit          3D

 23 23  0  0  1  0  0  0  0  0999 V2000
    8.9719  -12.5983   17.4948 N   0  0  0  0  0  0  0  0  0  0  0  0
    8.3500  -13.8483   17.7492 C   0  0  0  0  0  0  0  0  0  0  0  0
    8.5314  -14.7577   16.8848 O   0  0  0  0  0  0  0  0  0  0  0  0
    7.5219  -14.0876   18.9722 C   0  0  0  0  0  0  0  0  0  0  0  0
    8.4587  -14.2814   20.1454 C   0  0  2  0  0  0  0  0  0  0  0  0
    9.4590  -15.2911   19.8620 N   0  0  0  0  0  0  0  0  0  0  0  0
    7.7305  -14.5351   21.3928 C   0  0  0  0  0  0  0  0  0  0  0  0
    6.6004  -14.0059   21.5338 O   0  0  0  0  0  0  0  0  0  0  0  0
    6.3444  -17.1067   25.1663 C   0  0  0  0  0  0  0  0  0  0  0  0
    7.1794  -17.0021   23.9312 C   0  0  1  0  0  0  0  0  0  0  0  0
    6.5159  -17.5554   22.8679 O   0  0  0  0  0  0  0  0  0  0  0  0
    7.5587  -15.5434   23.6938 C   0  0  2  0  0  0  0  0  0  0  0  0
    8.2387  -15.3539   22.4589 N   0  0  0  0  0  0  0  0  0  0  0  0
    8.1104  -14.9149   24.8902 C   0  0  0  0  0  0  0  0  0  0  0  0
    9.2010  -15.4672   25.3185 O   0  0  0  0  0  0  0  0  0  0  0  0
    7.6335  -13.8189   25.6293 N   0  0  0  0  0  0  0  0  0  0  0  0
    6.5637  -12.9665   25.1541 C   0  0  0  0  0  0  0  0  0  0  0  0
    6.3362  -11.9215   26.2451 C   0  0  0  0  0  0  0  0  0  0  0  0
    6.7926  -12.6761   27.4566 C   0  0  0  0  0  0  0  0  0  0  0  0
    8.0696  -13.3487   26.9136 C   0  0  1  0  0  0  0  0  0  0  0  0
    8.5077  -14.3785   27.8676 C   0  0  0  0  0  0  0  0  0  0  0  0
    9.3313  -13.9390   28.9031 O   0  0  0  0  0  0  0  0  0  0  0  0
    8.2223  -15.5885   27.8460 O   0  0  0  0  0  0  0  0  0  0  0  0
  2  4  1  0
  2  1  1  0
  3  2  2  0
  4  5  1  0
  5  7  1  0
  5  6  1  6
  7  8  2  0
 10  9  1  1
 10 11  1  0
 10 12  1  0
 12 14  1  0
 12 13  1  6
 13  7  1  0
 14 16  1  0
 14 15  2  0
 16 17  1  0
 17 18  1  0
 19 18  1  0
 20 16  1  0
 20 19  1  0
 20 21  1  1
 22 21  1  0
 23 21  2  0
M  END
$$$$
