CVR.pdb
     RDKit          3D

 25 24  0  0  1  0  0  0  0  0999 V2000
    7.5351  -18.3100   28.8166 N   0  0  0  0  0  0  0  0  0  0  0  0
    7.9288  -16.9371   28.6051 C   0  0  1  0  0  0  0  0  0  0  0  0
    9.2715  -16.6957   29.2430 C   0  0  0  0  0  0  0  0  0  0  0  0
    9.7543  -14.9605   29.1713 S   0  0  0  0  0  0  0  0  0  0  0  0
    7.8960  -16.5504   27.1802 C   0  0  0  0  0  0  0  0  0  0  0  0
    8.1576  -17.4667   26.3433 O   0  0  0  0  0  0  0  0  0  0  0  0
    6.6707  -13.3285   23.6275 C   0  0  0  0  0  0  0  0  0  0  0  0
    6.8250  -13.7774   25.0395 C   0  0  2  0  0  0  0  0  0  0  0  0
    7.2739  -12.5885   25.9007 C   0  0  0  0  0  0  0  0  0  0  0  0
    7.6753  -14.9730   25.2663 C   0  0  2  0  0  0  0  0  0  0  0  0
    7.6003  -15.2635   26.7087 N   0  0  0  0  0  0  0  0  0  0  0  0
    9.0766  -14.8689   24.8334 C   0  0  0  0  0  0  0  0  0  0  0  0
    9.9150  -14.3800   25.6728 O   0  0  0  0  0  0  0  0  0  0  0  0
   14.0747  -19.4958   22.4034 N   0  0  0  0  0  0  0  0  0  0  0  0
   13.2832  -20.6180   22.7400 C   0  0  0  0  0  0  0  0  0  0  0  0
   13.8005  -21.7997   22.6742 N   0  0  0  0  0  0  0  0  0  0  0  0
   11.9326  -20.5062   23.1500 N   0  0  0  0  0  0  0  0  0  0  0  0
   11.5105  -19.7374   24.2797 C   0  0  0  0  0  0  0  0  0  0  0  0
   11.8152  -18.2628   24.1875 C   0  0  0  0  0  0  0  0  0  0  0  0
   10.6239  -17.3751   24.2743 C   0  0  0  0  0  0  0  0  0  0  0  0
   10.7962  -16.0819   23.5094 C   0  0  2  0  0  0  0  0  0  0  0  0
    9.6094  -15.2505   23.5879 N   0  0  0  0  0  0  0  0  0  0  0  0
   11.1911  -16.3497   22.1083 C   0  0  0  0  0  0  0  0  0  0  0  0
   12.3911  -16.6123   21.8710 O   0  0  0  0  0  0  0  0  0  0  0  0
   10.3010  -16.3234   21.0526 O   0  0  0  0  0  0  0  0  0  0  0  0
  2  1  1  6
  2  3  1  0
  3  4  1  0
  5  2  1  0
  6  5  2  0
  8  7  1  6
  8  9  1  0
  8 10  1  0
 10 11  1  1
 11  5  1  0
 12 10  1  0
 12 22  1  0
 13 12  2  0
 15 16  2  0
 15 14  1  0
 17 15  1  0
 18 17  1  0
 19 18  1  0
 20 19  1  0
 21 20  1  6
 21 22  1  0
 21 23  1  0
 23 25  1  0
 24 23  2  0
M  END
$$$$
