CVR.pdb
     RDKit          3D

 25 24  0  0  1  0  0  0  0  0999 V2000
    7.5273  -14.1713   20.6741 N   0  0  0  0  0  0  0  0  0  0  0  0
    7.0315  -14.7405   21.9048 C   0  0  1  0  0  0  0  0  0  0  0  0
    6.9144  -16.2345   21.7558 C   0  0  0  0  0  0  0  0  0  0  0  0
    6.2825  -17.0178   23.2511 S   0  0  0  0  0  0  0  0  0  0  0  0
    7.8369  -14.3453   23.0778 C   0  0  0  0  0  0  0  0  0  0  0  0
    9.0934  -14.3071   22.9096 O   0  0  0  0  0  0  0  0  0  0  0  0
    6.2280  -13.1179   26.8870 C   0  0  0  0  0  0  0  0  0  0  0  0
    7.5743  -12.7906   26.3399 C   0  0  2  0  0  0  0  0  0  0  0  0
    7.5158  -11.4262   25.6386 C   0  0  0  0  0  0  0  0  0  0  0  0
    8.2112  -13.8223   25.4833 C   0  0  2  0  0  0  0  0  0  0  0  0
    7.3093  -14.0177   24.3349 N   0  0  0  0  0  0  0  0  0  0  0  0
    8.5128  -15.1095   26.1269 C   0  0  0  0  0  0  0  0  0  0  0  0
    7.5488  -15.9487   26.2402 O   0  0  0  0  0  0  0  0  0  0  0  0
   12.2258  -19.8130   21.5479 N   0  0  0  0  0  0  0  0  0  0  0  0
   11.8346  -18.5129   21.9426 C   0  0  0  0  0  0  0  0  0  0  0  0
   11.2474  -17.7423   21.0885 N   0  0  0  0  0  0  0  0  0  0  0  0
   12.0599  -18.0090   23.2465 N   0  0  0  0  0  0  0  0  0  0  0  0
   11.6602  -18.6919   24.4379 C   0  0  0  0  0  0  0  0  0  0  0  0
   10.5658  -18.0080   25.2190 C   0  0  0  0  0  0  0  0  0  0  0  0
   10.9141  -17.6921   26.6310 C   0  0  0  0  0  0  0  0  0  0  0  0
    9.8875  -16.8115   27.3078 C   0  0  2  0  0  0  0  0  0  0  0  0
    9.7545  -15.5311   26.6380 N   0  0  0  0  0  0  0  0  0  0  0  0
   10.1993  -16.6526   28.7460 C   0  0  0  0  0  0  0  0  0  0  0  0
   10.3527  -15.4947   29.1943 O   0  0  0  0  0  0  0  0  0  0  0  0
   10.3293  -17.7183   29.6149 O   0  0  0  0  0  0  0  0  0  0  0  0
  2  1  1  6
  2  3  1  0
  3  4  1  0
  5  2  1  0
  6  5  2  0
  8  7  1  6
  8  9  1  0
  8 10  1  0
 10 11  1  6
 11  5  1  0
 12 10  1  0
 12 22  1  0
 13 12  2  0
 15 16  2  0
 15 14  1  0
 17 15  1  0
 18 17  1  0
 19 18  1  0
 20 19  1  0
 21 20  1  6
 21 22  1  0
 21 23  1  0
 23 25  1  0
 24 23  2  0
M  END
$$$$
