CVR.pdb
     RDKit          3D

 25 24  0  0  1  0  0  0  0  0999 V2000
    9.7084  -16.7285   15.7391 N   0  0  0  0  0  0  0  0  0  0  0  0
    9.0268  -17.0996   16.9565 C   0  0  1  0  0  0  0  0  0  0  0  0
    9.3422  -18.5335   17.2918 C   0  0  0  0  0  0  0  0  0  0  0  0
    7.9338  -19.3835   18.0285 S   0  0  0  0  0  0  0  0  0  0  0  0
    9.3146  -16.1759   18.0722 C   0  0  0  0  0  0  0  0  0  0  0  0
   10.5305  -15.8546   18.2361 O   0  0  0  0  0  0  0  0  0  0  0  0
    7.7997  -12.7405   21.2553 C   0  0  0  0  0  0  0  0  0  0  0  0
    7.6107  -13.8098   20.2356 C   0  0  2  0  0  0  0  0  0  0  0  0
    6.3132  -14.5722   20.5387 C   0  0  0  0  0  0  0  0  0  0  0  0
    8.7538  -14.7326   20.0222 C   0  0  2  0  0  0  0  0  0  0  0  0
    8.3488  -15.6459   18.9395 N   0  0  0  0  0  0  0  0  0  0  0  0
    9.2064  -15.4933   21.1963 C   0  0  0  0  0  0  0  0  0  0  0  0
    8.6259  -16.6139   21.4285 O   0  0  0  0  0  0  0  0  0  0  0  0
   17.0309  -14.2742   21.4321 N   0  0  0  0  0  0  0  0  0  0  0  0
   16.4104  -15.5274   21.6402 C   0  0  0  0  0  0  0  0  0  0  0  0
   17.1297  -16.5373   22.0024 N   0  0  0  0  0  0  0  0  0  0  0  0
   15.0199  -15.7306   21.4672 N   0  0  0  0  0  0  0  0  0  0  0  0
   14.0301  -15.2391   22.3751 C   0  0  0  0  0  0  0  0  0  0  0  0
   12.9877  -16.2518   22.7795 C   0  0  0  0  0  0  0  0  0  0  0  0
   11.9563  -15.7399   23.7222 C   0  0  0  0  0  0  0  0  0  0  0  0
   10.5442  -15.9769   23.2354 C   0  0  2  0  0  0  0  0  0  0  0  0
   10.2174  -15.1280   22.1047 N   0  0  0  0  0  0  0  0  0  0  0  0
    9.5743  -15.8195   24.3424 C   0  0  0  0  0  0  0  0  0  0  0  0
    8.8081  -14.8306   24.3225 O   0  0  0  0  0  0  0  0  0  0  0  0
    9.4749  -16.7091   25.3942 O   0  0  0  0  0  0  0  0  0  0  0  0
  2  1  1  6
  2  3  1  0
  3  4  1  0
  5  2  1  0
  6  5  2  0
  8  7  1  1
  8  9  1  0
  8 10  1  0
 10 11  1  6
 11  5  1  0
 12 10  1  0
 12 22  1  0
 13 12  2  0
 15 16  2  0
 15 14  1  0
 17 15  1  0
 18 17  1  0
 19 18  1  0
 20 19  1  0
 21 20  1  1
 21 22  1  0
 21 23  1  0
 23 25  1  0
 24 23  2  0
M  END
$$$$
