CVR.pdb
     RDKit          3D

 25 24  0  0  1  0  0  0  0  0999 V2000
    7.6849  -18.9638   18.8098 N   0  0  0  0  0  0  0  0  0  0  0  0
    6.7830  -17.9568   19.3169 C   0  0  1  0  0  0  0  0  0  0  0  0
    5.6766  -18.6193   20.0947 C   0  0  0  0  0  0  0  0  0  0  0  0
    5.9963  -18.6126   21.8685 S   0  0  0  0  0  0  0  0  0  0  0  0
    7.4789  -16.9106   20.0928 C   0  0  0  0  0  0  0  0  0  0  0  0
    8.6286  -17.2110   20.5360 O   0  0  0  0  0  0  0  0  0  0  0  0
    7.4742  -12.9695   19.3060 C   0  0  0  0  0  0  0  0  0  0  0  0
    7.2841  -13.3245   20.7401 C   0  0  2  0  0  0  0  0  0  0  0  0
    7.8932  -12.2221   21.6178 C   0  0  0  0  0  0  0  0  0  0  0  0
    7.7417  -14.6743   21.1557 C   0  0  2  0  0  0  0  0  0  0  0  0
    6.9582  -15.6369   20.3621 N   0  0  0  0  0  0  0  0  0  0  0  0
    7.6407  -14.9848   22.5893 C   0  0  0  0  0  0  0  0  0  0  0  0
    6.4619  -15.0776   23.0877 O   0  0  0  0  0  0  0  0  0  0  0  0
    6.5929  -20.8235   28.7356 N   0  0  0  0  0  0  0  0  0  0  0  0
    7.3237  -20.6268   27.5414 C   0  0  0  0  0  0  0  0  0  0  0  0
    8.6097  -20.7463   27.5597 N   0  0  0  0  0  0  0  0  0  0  0  0
    6.7047  -20.2999   26.3107 N   0  0  0  0  0  0  0  0  0  0  0  0
    7.3888  -19.6685   25.2249 C   0  0  0  0  0  0  0  0  0  0  0  0
    7.8942  -18.2785   25.5217 C   0  0  0  0  0  0  0  0  0  0  0  0
    8.0253  -17.3969   24.3300 C   0  0  0  0  0  0  0  0  0  0  0  0
    8.5237  -16.0112   24.6746 C   0  0  2  0  0  0  0  0  0  0  0  0
    8.7034  -15.1957   23.4878 N   0  0  0  0  0  0  0  0  0  0  0  0
    9.7595  -16.0850   25.4860 C   0  0  0  0  0  0  0  0  0  0  0  0
    9.7258  -16.7271   26.5592 O   0  0  0  0  0  0  0  0  0  0  0  0
   10.9450  -15.4803   25.1167 O   0  0  0  0  0  0  0  0  0  0  0  0
  2  1  1  1
  2  3  1  0
  3  4  1  0
  5  2  1  0
  6  5  2  0
  8  7  1  6
  8  9  1  0
  8 10  1  0
 10 11  1  6
 11  5  1  0
 12 10  1  0
 12 22  1  0
 13 12  2  0
 15 16  2  0
 15 14  1  0
 17 15  1  0
 18 17  1  0
 19 18  1  0
 20 19  1  0
 21 20  1  6
 21 22  1  0
 21 23  1  0
 23 25  1  0
 24 23  2  0
M  END
$$$$
