CVR.pdb
     RDKit          3D

 25 24  0  0  1  0  0  0  0  0999 V2000
    9.0058  -17.1851   16.1050 N   0  0  0  0  0  0  0  0  0  0  0  0
    8.1689  -17.3201   17.2737 C   0  0  1  0  0  0  0  0  0  0  0  0
    7.9896  -18.7800   17.5971 C   0  0  0  0  0  0  0  0  0  0  0  0
    6.9275  -19.0314   19.0315 S   0  0  0  0  0  0  0  0  0  0  0  0
    8.6681  -16.5381   18.4226 C   0  0  0  0  0  0  0  0  0  0  0  0
    9.9235  -16.5432   18.6027 O   0  0  0  0  0  0  0  0  0  0  0  0
    7.1763  -12.9408   19.6325 C   0  0  0  0  0  0  0  0  0  0  0  0
    7.4825  -13.9348   20.6988 C   0  0  2  0  0  0  0  0  0  0  0  0
    7.8593  -13.1916   21.9881 C   0  0  0  0  0  0  0  0  0  0  0  0
    8.4741  -14.9866   20.3604 C   0  0  2  0  0  0  0  0  0  0  0  0
    7.8581  -15.8084   19.3042 N   0  0  0  0  0  0  0  0  0  0  0  0
    8.9320  -15.8335   21.4717 C   0  0  0  0  0  0  0  0  0  0  0  0
    8.2065  -16.8480   21.7735 O   0  0  0  0  0  0  0  0  0  0  0  0
   13.1812  -21.7879   23.0259 N   0  0  0  0  0  0  0  0  0  0  0  0
   13.3707  -21.2114   21.7489 C   0  0  0  0  0  0  0  0  0  0  0  0
   13.2151  -21.9423   20.6954 N   0  0  0  0  0  0  0  0  0  0  0  0
   13.7285  -19.8535   21.5680 N   0  0  0  0  0  0  0  0  0  0  0  0
   13.8284  -18.9127   22.6406 C   0  0  0  0  0  0  0  0  0  0  0  0
   12.5052  -18.4176   23.1697 C   0  0  0  0  0  0  0  0  0  0  0  0
   11.8946  -17.3128   22.3816 C   0  0  0  0  0  0  0  0  0  0  0  0
   10.6438  -16.7540   23.0222 C   0  0  2  0  0  0  0  0  0  0  0  0
   10.0908  -15.6563   22.2506 N   0  0  0  0  0  0  0  0  0  0  0  0
   10.9024  -16.3661   24.4271 C   0  0  0  0  0  0  0  0  0  0  0  0
   10.9069  -15.1484   24.7141 O   0  0  0  0  0  0  0  0  0  0  0  0
   11.1388  -17.2814   25.4340 O   0  0  0  0  0  0  0  0  0  0  0  0
  2  1  1  6
  2  3  1  0
  3  4  1  0
  5  2  1  0
  6  5  2  0
  8  7  1  6
  8  9  1  0
  8 10  1  0
 10 11  1  6
 11  5  1  0
 12 10  1  0
 12 22  1  0
 13 12  2  0
 15 16  2  0
 15 14  1  0
 17 15  1  0
 18 17  1  0
 19 18  1  0
 20 19  1  0
 21 20  1  6
 21 22  1  0
 21 23  1  0
 23 25  1  0
 24 23  2  0
M  END
$$$$
