CVR.pdb
     RDKit          3D

 25 24  0  0  1  0  0  0  0  0999 V2000
    8.9283  -15.1052   14.6973 N   0  0  0  0  0  0  0  0  0  0  0  0
    8.4839  -15.7498   15.9104 C   0  0  1  0  0  0  0  0  0  0  0  0
    8.6411  -17.2412   15.7733 C   0  0  0  0  0  0  0  0  0  0  0  0
    8.3226  -18.1023   17.3244 S   0  0  0  0  0  0  0  0  0  0  0  0
    9.1500  -15.2139   17.1146 C   0  0  0  0  0  0  0  0  0  0  0  0
   10.4094  -15.0801   17.0473 O   0  0  0  0  0  0  0  0  0  0  0  0
    7.1361  -13.7905   20.7319 C   0  0  0  0  0  0  0  0  0  0  0  0
    8.3132  -13.2308   20.0107 C   0  0  2  0  0  0  0  0  0  0  0  0
    7.8322  -12.1844   18.9956 C   0  0  0  0  0  0  0  0  0  0  0  0
    9.2402  -14.2117   19.3921 C   0  0  2  0  0  0  0  0  0  0  0  0
    8.4905  -14.8530   18.2980 N   0  0  0  0  0  0  0  0  0  0  0  0
    9.8109  -15.2264   20.2902 C   0  0  0  0  0  0  0  0  0  0  0  0
    9.1589  -16.3232   20.4255 O   0  0  0  0  0  0  0  0  0  0  0  0
   15.6789  -13.6922   19.1685 N   0  0  0  0  0  0  0  0  0  0  0  0
   15.7172  -14.8673   18.3834 C   0  0  0  0  0  0  0  0  0  0  0  0
   15.9940  -14.7787   17.1249 N   0  0  0  0  0  0  0  0  0  0  0  0
   15.4622  -16.1533   18.9181 N   0  0  0  0  0  0  0  0  0  0  0  0
   14.9634  -16.3751   20.2401 C   0  0  0  0  0  0  0  0  0  0  0  0
   13.4642  -16.2734   20.3730 C   0  0  0  0  0  0  0  0  0  0  0  0
   12.9509  -16.4325   21.7608 C   0  0  0  0  0  0  0  0  0  0  0  0
   11.4558  -16.2280   21.8626 C   0  0  2  0  0  0  0  0  0  0  0  0
   11.0067  -15.1304   21.0263 N   0  0  0  0  0  0  0  0  0  0  0  0
   11.0456  -16.0506   23.2737 C   0  0  0  0  0  0  0  0  0  0  0  0
   10.5306  -14.9607   23.6083 O   0  0  0  0  0  0  0  0  0  0  0  0
   11.2040  -17.0278   24.2368 O   0  0  0  0  0  0  0  0  0  0  0  0
  2  1  1  6
  2  3  1  0
  3  4  1  0
  5  2  1  0
  6  5  2  0
  8  7  1  6
  8  9  1  0
  8 10  1  0
 10 11  1  6
 11  5  1  0
 12 10  1  0
 12 22  1  0
 13 12  2  0
 15 16  2  0
 15 14  1  0
 17 15  1  0
 18 17  1  0
 19 18  1  0
 20 19  1  0
 21 20  1  1
 21 22  1  0
 21 23  1  0
 23 25  1  0
 24 23  2  0
M  END
$$$$
