CVR.pdb
     RDKit          3D

 25 24  0  0  1  0  0  0  0  0999 V2000
    8.0890  -15.0463   14.0417 N   0  0  0  0  0  0  0  0  0  0  0  0
    8.2001  -15.6675   15.3403 C   0  0  1  0  0  0  0  0  0  0  0  0
    8.9021  -16.9928   15.2048 C   0  0  0  0  0  0  0  0  0  0  0  0
    8.9249  -17.9102   16.7562 S   0  0  0  0  0  0  0  0  0  0  0  0
    8.8352  -14.7846   16.3393 C   0  0  0  0  0  0  0  0  0  0  0  0
    9.8560  -14.1399   15.9509 O   0  0  0  0  0  0  0  0  0  0  0  0
    7.3560  -13.9304   20.3715 C   0  0  0  0  0  0  0  0  0  0  0  0
    8.1322  -13.0749   19.4309 C   0  0  2  0  0  0  0  0  0  0  0  0
    7.1583  -12.2430   18.5848 C   0  0  0  0  0  0  0  0  0  0  0  0
    9.1432  -13.7627   18.5889 C   0  0  2  0  0  0  0  0  0  0  0  0
    8.3888  -14.6201   17.6582 N   0  0  0  0  0  0  0  0  0  0  0  0
   10.1619  -14.5470   19.3021 C   0  0  0  0  0  0  0  0  0  0  0  0
   10.0235  -15.8227   19.3062 O   0  0  0  0  0  0  0  0  0  0  0  0
   19.8488  -15.4428   20.6312 N   0  0  0  0  0  0  0  0  0  0  0  0
   18.7256  -14.6357   20.3381 C   0  0  0  0  0  0  0  0  0  0  0  0
   18.9026  -13.3957   20.0230 N   0  0  0  0  0  0  0  0  0  0  0  0
   17.3988  -15.1286   20.3750 N   0  0  0  0  0  0  0  0  0  0  0  0
   16.2518  -14.3354   20.0576 C   0  0  0  0  0  0  0  0  0  0  0  0
   14.9285  -15.0266   20.2736 C   0  0  0  0  0  0  0  0  0  0  0  0
   13.7344  -14.1956   19.9597 C   0  0  0  0  0  0  0  0  0  0  0  0
   12.4307  -14.9031   20.2548 C   0  0  2  0  0  0  0  0  0  0  0  0
   11.2864  -14.0513   19.9883 N   0  0  0  0  0  0  0  0  0  0  0  0
   12.4192  -15.4258   21.6395 C   0  0  0  0  0  0  0  0  0  0  0  0
   11.7093  -14.8410   22.4875 O   0  0  0  0  0  0  0  0  0  0  0  0
   13.1532  -16.5252   22.0399 O   0  0  0  0  0  0  0  0  0  0  0  0
  2  1  1  6
  2  3  1  0
  3  4  1  0
  5  2  1  0
  6  5  2  0
  8  7  1  6
  8  9  1  0
  8 10  1  0
 10 11  1  6
 11  5  1  0
 12 10  1  0
 12 22  1  0
 13 12  2  0
 15 16  2  0
 15 14  1  0
 17 15  1  0
 18 17  1  0
 19 18  1  0
 20 19  1  0
 21 20  1  1
 21 22  1  0
 21 23  1  0
 23 25  1  0
 24 23  2  0
M  END
$$$$
