YQW.pdb
     RDKit          3D

 36 38  0  0  1  0  0  0  0  0999 V2000
    9.9592  -19.2147   30.9506 O   0  0  0  0  0  0  0  0  0  0  0  0
    9.3605  -19.0194   29.7086 C   0  0  0  0  0  0  0  0  0  0  0  0
    8.1361  -19.5716   29.3921 C   0  0  0  0  0  0  0  0  0  0  0  0
    7.5852  -19.3489   28.1491 C   0  0  0  0  0  0  0  0  0  0  0  0
    8.1998  -18.5884   27.1782 C   0  0  0  0  0  0  0  0  0  0  0  0
    7.6165  -18.3556   25.8508 C   0  0  0  0  0  0  0  0  0  0  0  0
    7.3890  -19.5917   25.0359 C   0  0  2  0  0  0  0  0  0  0  0  0
    7.9866  -20.6981   25.7923 N   0  0  0  0  0  0  0  0  0  0  0  0
    8.0666  -19.5224   23.7263 C   0  0  0  0  0  0  0  0  0  0  0  0
    9.1397  -20.1486   23.5247 O   0  0  0  0  0  0  0  0  0  0  0  0
    9.4373  -18.0377   27.5157 C   0  0  0  0  0  0  0  0  0  0  0  0
    9.9980  -18.2527   28.7541 C   0  0  0  0  0  0  0  0  0  0  0  0
    7.2192  -16.2416   18.0690 N   0  0  0  0  0  0  0  0  0  0  0  0
    6.3870  -16.0942   19.2055 C   0  0  0  0  0  0  0  0  0  0  0  0
    5.4852  -15.2299   19.2020 O   0  0  0  0  0  0  0  0  0  0  0  0
    6.5601  -16.9474   20.3986 C   0  0  0  0  0  0  0  0  0  0  0  0
    7.5885  -18.0057   20.2704 C   0  0  0  0  0  0  0  0  0  0  0  0
    8.2962  -18.4349   21.5000 C   0  0  2  0  0  0  0  0  0  0  0  0
    7.5322  -18.7474   22.6499 N   0  0  0  0  0  0  0  0  0  0  0  0
    9.3302  -17.4280   21.8931 C   0  0  0  0  0  0  0  0  0  0  0  0
   10.2758  -17.1214   21.1270 O   0  0  0  0  0  0  0  0  0  0  0  0
    9.2528  -16.7988   23.1521 N   0  0  0  0  0  0  0  0  0  0  0  0
   10.2737  -15.8274   23.5253 C   0  0  1  0  0  0  0  0  0  0  0  0
    9.5474  -14.5117   23.6101 C   0  0  0  0  0  0  0  0  0  0  0  0
    8.4861  -14.5282   24.6244 C   0  0  0  0  0  0  0  0  0  0  0  0
    7.8996  -15.6862   25.1619 C   0  0  0  0  0  0  0  0  0  0  0  0
    6.9484  -15.3405   26.0305 N   0  0  0  0  0  0  0  0  0  0  0  0
    6.8497  -14.0000   26.1199 C   0  0  0  0  0  0  0  0  0  0  0  0
    6.0403  -13.1838   26.8807 C   0  0  0  0  0  0  0  0  0  0  0  0
    6.1649  -11.8099   26.7912 C   0  0  0  0  0  0  0  0  0  0  0  0
    7.1166  -11.3123   25.9235 C   0  0  0  0  0  0  0  0  0  0  0  0
    7.9248  -12.1280   25.1626 C   0  0  0  0  0  0  0  0  0  0  0  0
    7.8064  -13.5002   25.2453 C   0  0  0  0  0  0  0  0  0  0  0  0
   11.0153  -16.2320   24.7152 C   0  0  0  0  0  0  0  0  0  0  0  0
   10.7453  -17.3510   25.4728 O   0  0  0  0  0  0  0  0  0  0  0  0
   11.9842  -15.5197   25.1127 O   0  0  0  0  0  0  0  0  0  0  0  0
  2  1  1  0
  3  2  2  0
  4  3  1  0
  5 11  1  0
  5  4  2  0
  6  5  1  0
  7  8  1  1
  7  6  1  0
  9  7  1  0
  9 10  2  0
 11 12  2  0
 12  2  1  0
 14 13  1  0
 15 14  2  0
 16 14  1  0
 16 17  1  0
 18 17  1  6
 18 19  1  0
 18 20  1  0
 19  9  1  0
 20 21  2  0
 20 22  1  0
 22 23  1  0
 23 34  1  0
 24 25  1  0
 23 24  1  1
 25 33  1  0
 25 26  2  0
 26 27  1  0
 28 27  1  0
 28 29  2  0
 30 29  1  0
 31 30  2  0
 32 31  1  0
 32 33  2  0
 33 28  1  0
 34 36  2  0
 34 35  1  0
M  END
$$$$
