YQW.pdb
     RDKit          3D

 36 38  0  0  1  0  0  0  0  0999 V2000
    7.4773  -11.5028   17.4742 O   0  0  0  0  0  0  0  0  0  0  0  0
    7.7267  -12.5085   18.4046 C   0  0  0  0  0  0  0  0  0  0  0  0
    6.7368  -13.3683   18.8350 C   0  0  0  0  0  0  0  0  0  0  0  0
    7.0338  -14.3476   19.7574 C   0  0  0  0  0  0  0  0  0  0  0  0
    8.2927  -14.5241   20.2896 C   0  0  0  0  0  0  0  0  0  0  0  0
    8.6089  -15.5635   21.2775 C   0  0  0  0  0  0  0  0  0  0  0  0
    9.5648  -16.6148   20.8033 C   0  0  2  0  0  0  0  0  0  0  0  0
    8.9035  -17.2970   19.6850 N   0  0  0  0  0  0  0  0  0  0  0  0
    9.8406  -17.6217   21.8468 C   0  0  0  0  0  0  0  0  0  0  0  0
    9.6504  -18.8459   21.6240 O   0  0  0  0  0  0  0  0  0  0  0  0
    9.2812  -13.6457   19.8428 C   0  0  0  0  0  0  0  0  0  0  0  0
    8.9971  -12.6634   18.9216 C   0  0  0  0  0  0  0  0  0  0  0  0
   13.0241  -21.3707   22.4410 N   0  0  0  0  0  0  0  0  0  0  0  0
   13.4839  -20.0415   22.2749 C   0  0  0  0  0  0  0  0  0  0  0  0
   14.4943  -19.8211   21.5743 O   0  0  0  0  0  0  0  0  0  0  0  0
   12.7887  -18.9043   22.9112 C   0  0  0  0  0  0  0  0  0  0  0  0
   11.6370  -19.2714   23.7672 C   0  0  0  0  0  0  0  0  0  0  0  0
   10.6694  -18.2052   24.1193 C   0  0  2  0  0  0  0  0  0  0  0  0
   10.3291  -17.2448   23.1368 N   0  0  0  0  0  0  0  0  0  0  0  0
   11.1135  -17.4728   25.3457 C   0  0  0  0  0  0  0  0  0  0  0  0
   12.3235  -17.2158   25.5575 O   0  0  0  0  0  0  0  0  0  0  0  0
   10.1602  -17.0536   26.2956 N   0  0  0  0  0  0  0  0  0  0  0  0
   10.6128  -16.3904   27.5122 C   0  0  1  0  0  0  0  0  0  0  0  0
   10.2796  -14.9364   27.3106 C   0  0  0  0  0  0  0  0  0  0  0  0
    8.9136  -14.7447   26.8080 C   0  0  0  0  0  0  0  0  0  0  0  0
    7.9835  -15.7733   26.5826 C   0  0  0  0  0  0  0  0  0  0  0  0
    6.8560  -15.2540   26.0947 N   0  0  0  0  0  0  0  0  0  0  0  0
    6.9617  -13.9167   25.9728 C   0  0  0  0  0  0  0  0  0  0  0  0
    6.0720  -12.9573   25.5389 C   0  0  0  0  0  0  0  0  0  0  0  0
    6.4398  -11.6246   25.5364 C   0  0  0  0  0  0  0  0  0  0  0  0
    7.7100  -11.3141   25.9793 C   0  0  0  0  0  0  0  0  0  0  0  0
    8.5993  -12.2729   26.4122 C   0  0  0  0  0  0  0  0  0  0  0  0
    8.2406  -13.6053   26.4171 C   0  0  0  0  0  0  0  0  0  0  0  0
   10.0744  -17.0139   28.7167 C   0  0  0  0  0  0  0  0  0  0  0  0
   10.4321  -16.6832   30.0058 O   0  0  0  0  0  0  0  0  0  0  0  0
    9.2143  -17.9369   28.6045 O   0  0  0  0  0  0  0  0  0  0  0  0
  2  1  1  0
  3  2  2  0
  4  3  1  0
  5 11  1  0
  5  4  2  0
  6  5  1  0
  7  8  1  6
  7  6  1  0
  9  7  1  0
  9 10  2  0
 11 12  2  0
 12  2  1  0
 14 13  1  0
 15 14  2  0
 16 14  1  0
 16 17  1  0
 18 17  1  6
 18 19  1  0
 18 20  1  0
 19  9  1  0
 20 21  2  0
 20 22  1  0
 22 23  1  0
 23 34  1  0
 24 25  1  0
 23 24  1  6
 25 33  1  0
 25 26  2  0
 26 27  1  0
 28 27  1  0
 28 29  2  0
 30 29  1  0
 31 30  2  0
 32 31  1  0
 32 33  2  0
 33 28  1  0
 34 36  2  0
 34 35  1  0
M  END
$$$$
