YQW.pdb
     RDKit          3D

 36 38  0  0  1  0  0  0  0  0999 V2000
   10.3433  -23.1723   15.7182 O   0  0  0  0  0  0  0  0  0  0  0  0
   10.3148  -21.8680   16.2051 C   0  0  0  0  0  0  0  0  0  0  0  0
   11.4202  -21.2797   16.7849 C   0  0  0  0  0  0  0  0  0  0  0  0
   11.3416  -19.9858   17.2516 C   0  0  0  0  0  0  0  0  0  0  0  0
   10.1955  -19.2248   17.1722 C   0  0  0  0  0  0  0  0  0  0  0  0
   10.1088  -17.8478   17.6750 C   0  0  0  0  0  0  0  0  0  0  0  0
   10.6501  -17.6454   19.0569 C   0  0  2  0  0  0  0  0  0  0  0  0
    9.7705  -18.4000   19.9572 N   0  0  0  0  0  0  0  0  0  0  0  0
   10.6052  -16.2277   19.4655 C   0  0  0  0  0  0  0  0  0  0  0  0
   11.2735  -15.3595   18.8459 O   0  0  0  0  0  0  0  0  0  0  0  0
    9.0875  -19.8359   16.5828 C   0  0  0  0  0  0  0  0  0  0  0  0
    9.1535  -21.1277   16.1126 C   0  0  0  0  0  0  0  0  0  0  0  0
    8.6454  -12.8275   17.8046 N   0  0  0  0  0  0  0  0  0  0  0  0
    7.6888  -13.8029   18.1775 C   0  0  0  0  0  0  0  0  0  0  0  0
    6.9128  -14.2673   17.3158 O   0  0  0  0  0  0  0  0  0  0  0  0
    7.5914  -14.2890   19.5688 C   0  0  0  0  0  0  0  0  0  0  0  0
    8.5298  -13.6545   20.5231 C   0  0  0  0  0  0  0  0  0  0  0  0
    9.7199  -14.4319   20.9430 C   0  0  2  0  0  0  0  0  0  0  0  0
    9.8076  -15.7946   20.5706 N   0  0  0  0  0  0  0  0  0  0  0  0
    9.9118  -14.3453   22.4240 C   0  0  0  0  0  0  0  0  0  0  0  0
    9.7643  -13.2649   23.0453 O   0  0  0  0  0  0  0  0  0  0  0  0
   10.2664  -15.4982   23.1534 N   0  0  0  0  0  0  0  0  0  0  0  0
    9.5276  -15.8273   24.3662 C   0  0  1  0  0  0  0  0  0  0  0  0
    8.0772  -15.6801   23.9912 C   0  0  0  0  0  0  0  0  0  0  0  0
    7.3091  -14.9632   25.0166 C   0  0  0  0  0  0  0  0  0  0  0  0
    6.1985  -15.4808   25.7041 C   0  0  0  0  0  0  0  0  0  0  0  0
    5.7212  -14.5558   26.5379 N   0  0  0  0  0  0  0  0  0  0  0  0
    6.4484  -13.4245   26.4606 C   0  0  0  0  0  0  0  0  0  0  0  0
    6.3551  -12.2212   27.1265 C   0  0  0  0  0  0  0  0  0  0  0  0
    7.2647  -11.2139   26.8640 C   0  0  0  0  0  0  0  0  0  0  0  0
    8.2446  -11.4698   25.9256 C   0  0  0  0  0  0  0  0  0  0  0  0
    8.3374  -12.6721   25.2597 C   0  0  0  0  0  0  0  0  0  0  0  0
    7.4331  -13.6824   25.5151 C   0  0  0  0  0  0  0  0  0  0  0  0
    9.9217  -17.1176   24.9224 C   0  0  0  0  0  0  0  0  0  0  0  0
    9.9703  -17.4177   26.2665 O   0  0  0  0  0  0  0  0  0  0  0  0
   10.2557  -18.0540   24.1377 O   0  0  0  0  0  0  0  0  0  0  0  0
  2  1  1  0
  3  2  2  0
  4  3  1  0
  5 11  1  0
  5  4  2  0
  6  5  1  0
  7  8  1  1
  7  6  1  0
  9  7  1  0
  9 10  2  0
 11 12  2  0
 12  2  1  0
 14 13  1  0
 15 14  2  0
 16 14  1  0
 16 17  1  0
 18 17  1  1
 18 19  1  0
 18 20  1  0
 19  9  1  0
 20 21  2  0
 20 22  1  0
 22 23  1  0
 23 34  1  0
 24 25  1  0
 23 24  1  6
 25 33  1  0
 25 26  2  0
 26 27  1  0
 28 27  1  0
 28 29  2  0
 30 29  1  0
 31 30  2  0
 32 31  1  0
 32 33  2  0
 33 28  1  0
 34 36  2  0
 34 35  1  0
M  END
$$$$
