YQW.pdb
     RDKit          3D

 36 38  0  0  1  0  0  0  0  0999 V2000
    6.8277  -11.8361   17.0030 O   0  0  0  0  0  0  0  0  0  0  0  0
    7.2218  -12.7446   17.9821 C   0  0  0  0  0  0  0  0  0  0  0  0
    8.5350  -12.8544   18.3916 C   0  0  0  0  0  0  0  0  0  0  0  0
    8.8747  -13.7691   19.3643 C   0  0  0  0  0  0  0  0  0  0  0  0
    7.9579  -14.6022   19.9679 C   0  0  0  0  0  0  0  0  0  0  0  0
    8.3199  -15.5818   21.0002 C   0  0  0  0  0  0  0  0  0  0  0  0
    9.1621  -16.7233   20.5193 C   0  0  2  0  0  0  0  0  0  0  0  0
    8.3063  -17.5203   19.6327 N   0  0  0  0  0  0  0  0  0  0  0  0
    9.5978  -17.5941   21.6287 C   0  0  0  0  0  0  0  0  0  0  0  0
    8.9164  -18.5987   21.9620 O   0  0  0  0  0  0  0  0  0  0  0  0
    6.6346  -14.4773   19.5414 C   0  0  0  0  0  0  0  0  0  0  0  0
    6.2827  -13.5673   18.5707 C   0  0  0  0  0  0  0  0  0  0  0  0
   15.2242  -19.5594   22.8072 N   0  0  0  0  0  0  0  0  0  0  0  0
   14.3896  -19.4575   21.6675 C   0  0  0  0  0  0  0  0  0  0  0  0
   14.8744  -19.6341   20.5299 O   0  0  0  0  0  0  0  0  0  0  0  0
   12.9506  -19.1503   21.7957 C   0  0  0  0  0  0  0  0  0  0  0  0
   12.4639  -18.9899   23.1854 C   0  0  0  0  0  0  0  0  0  0  0  0
   11.2445  -18.1751   23.4013 C   0  0  2  0  0  0  0  0  0  0  0  0
   10.7990  -17.3290   22.3578 N   0  0  0  0  0  0  0  0  0  0  0  0
   11.3741  -17.3489   24.6415 C   0  0  0  0  0  0  0  0  0  0  0  0
   12.2274  -16.4335   24.7371 O   0  0  0  0  0  0  0  0  0  0  0  0
   10.5225  -17.5923   25.7381 N   0  0  0  0  0  0  0  0  0  0  0  0
   10.5331  -16.6681   26.8654 C   0  0  1  0  0  0  0  0  0  0  0  0
   10.2458  -15.3179   26.2653 C   0  0  0  0  0  0  0  0  0  0  0  0
    8.8135  -14.9960   26.2838 C   0  0  0  0  0  0  0  0  0  0  0  0
    7.7802  -15.8877   25.9504 C   0  0  0  0  0  0  0  0  0  0  0  0
    6.6061  -15.2615   26.0413 N   0  0  0  0  0  0  0  0  0  0  0  0
    6.7779  -13.9808   26.4219 C   0  0  0  0  0  0  0  0  0  0  0  0
    5.8807  -12.9625   26.6634 C   0  0  0  0  0  0  0  0  0  0  0  0
    6.3361  -11.7232   27.0730 C   0  0  0  0  0  0  0  0  0  0  0  0
    7.6992  -11.5637   27.2234 C   0  0  0  0  0  0  0  0  0  0  0  0
    8.5958  -12.5812   26.9814 C   0  0  0  0  0  0  0  0  0  0  0  0
    8.1497  -13.8209   26.5715 C   0  0  0  0  0  0  0  0  0  0  0  0
    9.6463  -17.0968   27.9420 C   0  0  0  0  0  0  0  0  0  0  0  0
    9.6492  -16.5832   29.2208 O   0  0  0  0  0  0  0  0  0  0  0  0
    8.8004  -18.0129   27.7196 O   0  0  0  0  0  0  0  0  0  0  0  0
  2  1  1  0
  3  2  2  0
  4  3  1  0
  5 11  1  0
  5  4  2  0
  6  5  1  0
  7  8  1  6
  7  6  1  0
  9  7  1  0
  9 10  2  0
 11 12  2  0
 12  2  1  0
 14 13  1  0
 15 14  2  0
 16 14  1  0
 16 17  1  0
 18 17  1  6
 18 19  1  0
 18 20  1  0
 19  9  1  0
 20 21  2  0
 20 22  1  0
 22 23  1  0
 23 34  1  0
 24 25  1  0
 23 24  1  6
 25 33  1  0
 25 26  2  0
 26 27  1  0
 28 27  1  0
 28 29  2  0
 30 29  1  0
 31 30  2  0
 32 31  1  0
 32 33  2  0
 33 28  1  0
 34 36  2  0
 34 35  1  0
M  END
$$$$
