YQW.pdb
     RDKit          3D

 36 38  0  0  1  0  0  0  0  0999 V2000
    8.9603  -11.5620   17.3634 O   0  0  0  0  0  0  0  0  0  0  0  0
    8.3344  -12.5740   18.0867 C   0  0  0  0  0  0  0  0  0  0  0  0
    8.6317  -12.8166   19.4123 C   0  0  0  0  0  0  0  0  0  0  0  0
    7.9846  -13.8300   20.0848 C   0  0  0  0  0  0  0  0  0  0  0  0
    7.0341  -14.6367   19.4977 C   0  0  0  0  0  0  0  0  0  0  0  0
    6.3484  -15.7213   20.2118 C   0  0  0  0  0  0  0  0  0  0  0  0
    6.9467  -17.0809   20.0189 C   0  0  2  0  0  0  0  0  0  0  0  0
    6.0226  -17.8165   19.1480 N   0  0  0  0  0  0  0  0  0  0  0  0
    7.0549  -17.8222   21.2907 C   0  0  0  0  0  0  0  0  0  0  0  0
    6.2011  -18.6937   21.6005 O   0  0  0  0  0  0  0  0  0  0  0  0
    6.7461  -14.3770   18.1567 C   0  0  0  0  0  0  0  0  0  0  0  0
    7.3855  -13.3674   17.4741 C   0  0  0  0  0  0  0  0  0  0  0  0
    8.5676  -22.6142   23.2220 N   0  0  0  0  0  0  0  0  0  0  0  0
    8.7348  -21.9777   24.4761 C   0  0  0  0  0  0  0  0  0  0  0  0
    8.9801  -22.6657   25.4895 O   0  0  0  0  0  0  0  0  0  0  0  0
    8.6296  -20.5107   24.6117 C   0  0  0  0  0  0  0  0  0  0  0  0
    8.3609  -19.7809   23.3511 C   0  0  0  0  0  0  0  0  0  0  0  0
    8.2561  -18.3038   23.4160 C   0  0  2  0  0  0  0  0  0  0  0  0
    8.1244  -17.5781   22.2080 N   0  0  0  0  0  0  0  0  0  0  0  0
    9.4059  -17.7257   24.1783 C   0  0  0  0  0  0  0  0  0  0  0  0
   10.5810  -18.1316   24.0064 O   0  0  0  0  0  0  0  0  0  0  0  0
    9.1794  -16.6978   25.1159 N   0  0  0  0  0  0  0  0  0  0  0  0
   10.2988  -16.1925   25.9012 C   0  0  1  0  0  0  0  0  0  0  0  0
   10.0583  -14.7109   26.0144 C   0  0  0  0  0  0  0  0  0  0  0  0
    8.6280  -14.3830   26.0617 C   0  0  0  0  0  0  0  0  0  0  0  0
    7.5814  -15.3163   25.9750 C   0  0  0  0  0  0  0  0  0  0  0  0
    6.4115  -14.6774   26.0174 N   0  0  0  0  0  0  0  0  0  0  0  0
    6.5988  -13.3482   26.1299 C   0  0  0  0  0  0  0  0  0  0  0  0
    5.7122  -12.2970   26.2256 C   0  0  0  0  0  0  0  0  0  0  0  0
    6.1847  -11.0044   26.3563 C   0  0  0  0  0  0  0  0  0  0  0  0
    7.5535  -10.8269   26.3852 C   0  0  0  0  0  0  0  0  0  0  0  0
    8.4395  -11.8773   26.2888 C   0  0  0  0  0  0  0  0  0  0  0  0
    7.9763  -13.1704   26.1572 C   0  0  0  0  0  0  0  0  0  0  0  0
   10.4660  -16.9161   27.1574 C   0  0  0  0  0  0  0  0  0  0  0  0
    9.6775  -17.9657   27.5764 O   0  0  0  0  0  0  0  0  0  0  0  0
   11.3941  -16.5756   27.9491 O   0  0  0  0  0  0  0  0  0  0  0  0
  2  1  1  0
  3  2  2  0
  4  3  1  0
  5 11  1  0
  5  4  2  0
  6  5  1  0
  7  8  1  6
  7  6  1  0
  9  7  1  0
  9 10  2  0
 11 12  2  0
 12  2  1  0
 14 13  1  0
 15 14  2  0
 16 14  1  0
 16 17  1  0
 18 17  1  6
 18 19  1  0
 18 20  1  0
 19  9  1  0
 20 21  2  0
 20 22  1  0
 22 23  1  0
 23 34  1  0
 24 25  1  0
 23 24  1  1
 25 33  1  0
 25 26  2  0
 26 27  1  0
 28 27  1  0
 28 29  2  0
 30 29  1  0
 31 30  2  0
 32 31  1  0
 32 33  2  0
 33 28  1  0
 34 36  2  0
 34 35  1  0
M  END
$$$$
