YQW.pdb
     RDKit          3D

 36 38  0  0  1  0  0  0  0  0999 V2000
    7.4489  -12.8624   14.9429 O   0  0  0  0  0  0  0  0  0  0  0  0
    7.4848  -13.4429   16.2082 C   0  0  0  0  0  0  0  0  0  0  0  0
    7.1886  -14.7756   16.4099 C   0  0  0  0  0  0  0  0  0  0  0  0
    7.2384  -15.3032   17.6816 C   0  0  0  0  0  0  0  0  0  0  0  0
    7.5748  -14.5605   18.7925 C   0  0  0  0  0  0  0  0  0  0  0  0
    7.6221  -15.1204   20.1493 C   0  0  0  0  0  0  0  0  0  0  0  0
    8.9514  -15.0112   20.8310 C   0  0  2  0  0  0  0  0  0  0  0  0
    9.9610  -15.3377   19.8173 N   0  0  0  0  0  0  0  0  0  0  0  0
    9.0881  -15.9831   21.9336 C   0  0  0  0  0  0  0  0  0  0  0  0
    8.1344  -16.1907   22.7284 O   0  0  0  0  0  0  0  0  0  0  0  0
    7.8714  -13.2148   18.5697 C   0  0  0  0  0  0  0  0  0  0  0  0
    7.8254  -12.6760   17.3041 C   0  0  0  0  0  0  0  0  0  0  0  0
   13.1453  -20.9967   22.5860 N   0  0  0  0  0  0  0  0  0  0  0  0
   12.6848  -20.2908   21.4479 C   0  0  0  0  0  0  0  0  0  0  0  0
   13.0663  -20.6381   20.3103 O   0  0  0  0  0  0  0  0  0  0  0  0
   11.7552  -19.1504   21.5771 C   0  0  0  0  0  0  0  0  0  0  0  0
   11.3654  -18.8117   22.9653 C   0  0  0  0  0  0  0  0  0  0  0  0
   10.4282  -17.6806   23.1641 C   0  0  2  0  0  0  0  0  0  0  0  0
   10.2989  -16.7164   22.1359 N   0  0  0  0  0  0  0  0  0  0  0  0
   10.7345  -16.9583   24.4377 C   0  0  0  0  0  0  0  0  0  0  0  0
   11.5745  -16.0269   24.4811 O   0  0  0  0  0  0  0  0  0  0  0  0
   10.0701  -17.3214   25.6266 N   0  0  0  0  0  0  0  0  0  0  0  0
   10.5126  -16.7483   26.8918 C   0  0  1  0  0  0  0  0  0  0  0  0
   10.2196  -15.2763   26.7767 C   0  0  0  0  0  0  0  0  0  0  0  0
    8.7874  -14.9835   26.9125 C   0  0  0  0  0  0  0  0  0  0  0  0
    7.7522  -15.9202   26.7547 C   0  0  0  0  0  0  0  0  0  0  0  0
    6.5753  -15.3129   26.9126 N   0  0  0  0  0  0  0  0  0  0  0  0
    6.7470  -14.0024   27.1727 C   0  0  0  0  0  0  0  0  0  0  0  0
    5.8491  -12.9865   27.4217 C   0  0  0  0  0  0  0  0  0  0  0  0
    6.3069  -11.7091   27.6855 C   0  0  0  0  0  0  0  0  0  0  0  0
    7.6731  -11.5100   27.6863 C   0  0  0  0  0  0  0  0  0  0  0  0
    8.5703  -12.5251   27.4368 C   0  0  0  0  0  0  0  0  0  0  0  0
    8.1218  -13.8028   27.1718 C   0  0  0  0  0  0  0  0  0  0  0  0
    9.9333  -17.4326   28.0432 C   0  0  0  0  0  0  0  0  0  0  0  0
    9.0398  -18.4794   27.9736 O   0  0  0  0  0  0  0  0  0  0  0  0
   10.2506  -17.0573   29.2105 O   0  0  0  0  0  0  0  0  0  0  0  0
  2  1  1  0
  3  2  2  0
  4  3  1  0
  5 11  1  0
  5  4  2  0
  6  5  1  0
  7  8  1  6
  7  6  1  0
  9  7  1  0
  9 10  2  0
 11 12  2  0
 12  2  1  0
 14 13  1  0
 15 14  2  0
 16 14  1  0
 16 17  1  0
 18 17  1  6
 18 19  1  0
 18 20  1  0
 19  9  1  0
 20 21  2  0
 20 22  1  0
 22 23  1  0
 23 34  1  0
 24 25  1  0
 23 24  1  6
 25 33  1  0
 25 26  2  0
 26 27  1  0
 28 27  1  0
 28 29  2  0
 30 29  1  0
 31 30  2  0
 32 31  1  0
 32 33  2  0
 33 28  1  0
 34 36  2  0
 34 35  1  0
M  END
$$$$
