LSF.pdb
     RDKit          3D

 26 26  0  0  1  0  0  0  0  0999 V2000
   23.5659  -14.7542  -17.2523 C   0  0  0  0  0  0  0  0  0  0  0  0
   22.7918  -14.1911  -16.0884 C   0  0  1  0  0  0  0  0  0  0  0  0
   23.6809  -13.8173  -14.9443 C   0  0  0  0  0  0  0  0  0  0  0  0
   21.9584  -13.0172  -16.5471 C   0  0  0  0  0  0  0  0  0  0  0  0
   20.5255  -13.4109  -16.8023 C   0  0  2  0  0  0  0  0  0  0  0  0
   20.3877  -14.2392  -17.9686 N   0  0  0  0  0  0  0  0  0  0  0  0
   19.7258  -12.1664  -16.9466 C   0  0  0  0  0  0  0  0  0  0  0  0
   19.6478  -11.5621  -18.0407 O   0  0  0  0  0  0  0  0  0  0  0  0
   16.7269  -10.9894  -14.1154 O   0  0  0  0  0  0  0  0  0  0  0  0
   16.7769  -10.6283  -15.4495 C   0  0  0  0  0  0  0  0  0  0  0  0
   18.1767  -10.4374  -15.9539 C   0  0  2  0  0  0  0  0  0  0  0  0
   19.0046  -11.5860  -15.8641 N   0  0  0  0  0  0  0  0  0  0  0  0
   18.8340   -9.2761  -15.3084 C   0  0  0  0  0  0  0  0  0  0  0  0
   19.8355   -9.4588  -14.5710 O   0  0  0  0  0  0  0  0  0  0  0  0
   18.3860   -7.9383  -15.4798 N   0  0  0  0  0  0  0  0  0  0  0  0
   19.0421   -6.7874  -14.8880 C   0  0  1  0  0  0  0  0  0  0  0  0
   20.4838   -6.8091  -15.3061 C   0  0  0  0  0  0  0  0  0  0  0  0
   21.1853   -5.5209  -15.1280 C   0  0  0  0  0  0  0  0  0  0  0  0
   21.4273   -4.9907  -13.8688 C   0  0  0  0  0  0  0  0  0  0  0  0
   22.0827   -3.7921  -13.6832 C   0  0  0  0  0  0  0  0  0  0  0  0
   22.4915   -3.1372  -14.8278 C   0  0  0  0  0  0  0  0  0  0  0  0
   22.2611   -3.6468  -16.0895 C   0  0  0  0  0  0  0  0  0  0  0  0
   21.6059   -4.8431  -16.2466 C   0  0  0  0  0  0  0  0  0  0  0  0
   18.2989   -5.5875  -15.2694 C   0  0  0  0  0  0  0  0  0  0  0  0
   18.2615   -4.4149  -14.5346 O   0  0  0  0  0  0  0  0  0  0  0  0
   17.6410   -5.6088  -16.3415 O   0  0  0  0  0  0  0  0  0  0  0  0
  2  1  1  6
  2  4  1  0
  3  2  1  0
  5  4  1  0
  5  6  1  6
  7  5  1  0
  7  8  2  0
  9 10  1  0
 11 10  1  1
 11 12  1  0
 11 13  1  0
 12  7  1  0
 13 15  1  0
 14 13  2  0
 15 16  1  0
 16 24  1  0
 17 18  1  0
 16 17  1  6
 18 19  2  0
 19 20  1  0
 21 20  2  0
 22 21  1  0
 23 22  2  0
 23 18  1  0
 24 26  2  0
 24 25  1  0
M  END
$$$$
