LSF.pdb
     RDKit          3D

 26 26  0  0  1  0  0  0  0  0999 V2000
   21.1858  -17.7894  -18.1251 C   0  0  0  0  0  0  0  0  0  0  0  0
   21.8331  -17.4799  -16.7999 C   0  0  1  0  0  0  0  0  0  0  0  0
   20.9080  -16.7559  -15.8729 C   0  0  0  0  0  0  0  0  0  0  0  0
   22.3567  -18.7522  -16.1757 C   0  0  0  0  0  0  0  0  0  0  0  0
   23.3937  -19.4187  -17.0439 C   0  0  2  0  0  0  0  0  0  0  0  0
   22.8092  -20.3330  -17.9860 N   0  0  0  0  0  0  0  0  0  0  0  0
   24.3523  -20.1252  -16.1544 C   0  0  0  0  0  0  0  0  0  0  0  0
   24.0244  -21.1600  -15.5299 O   0  0  0  0  0  0  0  0  0  0  0  0
   28.4483  -18.9320  -15.9328 O   0  0  0  0  0  0  0  0  0  0  0  0
   28.0648  -20.2223  -15.6155 C   0  0  0  0  0  0  0  0  0  0  0  0
   26.6500  -20.3102  -15.1244 C   0  0  2  0  0  0  0  0  0  0  0  0
   25.6900  -19.6780  -15.9559 N   0  0  0  0  0  0  0  0  0  0  0  0
   26.5266  -19.8216  -13.7304 C   0  0  0  0  0  0  0  0  0  0  0  0
   26.4942  -18.5853  -13.5051 O   0  0  0  0  0  0  0  0  0  0  0  0
   26.4410  -20.6909  -12.6094 N   0  0  0  0  0  0  0  0  0  0  0  0
   26.3780  -20.2291  -11.2353 C   0  0  1  0  0  0  0  0  0  0  0  0
   25.2405  -19.2557  -11.1244 C   0  0  0  0  0  0  0  0  0  0  0  0
   23.9088  -19.8513  -11.3591 C   0  0  0  0  0  0  0  0  0  0  0  0
   23.1740  -20.4222  -10.3298 C   0  0  0  0  0  0  0  0  0  0  0  0
   21.9291  -20.9798  -10.5293 C   0  0  0  0  0  0  0  0  0  0  0  0
   21.4437  -20.9413  -11.8212 C   0  0  0  0  0  0  0  0  0  0  0  0
   22.1579  -20.3784  -12.8593 C   0  0  0  0  0  0  0  0  0  0  0  0
   23.3959  -19.8296  -12.6335 C   0  0  0  0  0  0  0  0  0  0  0  0
   26.2881  -21.3974  -10.3609 C   0  0  0  0  0  0  0  0  0  0  0  0
   26.2179  -21.3462   -8.9793 O   0  0  0  0  0  0  0  0  0  0  0  0
   26.2725  -22.5388  -10.8899 O   0  0  0  0  0  0  0  0  0  0  0  0
  2  1  1  6
  2  4  1  0
  3  2  1  0
  5  4  1  0
  5  6  1  6
  7  5  1  0
  7  8  2  0
  9 10  1  0
 11 10  1  6
 11 12  1  0
 11 13  1  0
 12  7  1  0
 13 15  1  0
 14 13  2  0
 15 16  1  0
 16 24  1  0
 17 18  1  0
 16 17  1  6
 18 19  2  0
 19 20  1  0
 21 20  2  0
 22 21  1  0
 23 22  2  0
 23 18  1  0
 24 26  2  0
 24 25  1  0
M  END
$$$$
