LSF.pdb
     RDKit          3D

 26 26  0  0  1  0  0  0  0  0999 V2000
   31.4085  -24.2744  -16.8688 C   0  0  0  0  0  0  0  0  0  0  0  0
   29.9799  -24.2895  -17.3482 C   0  0  1  0  0  0  0  0  0  0  0  0
   29.2939  -25.5842  -17.0442 C   0  0  0  0  0  0  0  0  0  0  0  0
   29.2302  -23.1159  -16.7620 C   0  0  0  0  0  0  0  0  0  0  0  0
   27.7895  -23.0909  -17.2062 C   0  0  2  0  0  0  0  0  0  0  0  0
   27.6486  -22.6763  -18.5749 N   0  0  0  0  0  0  0  0  0  0  0  0
   27.0460  -22.1746  -16.3024 C   0  0  0  0  0  0  0  0  0  0  0  0
   27.1410  -20.9306  -16.4098 O   0  0  0  0  0  0  0  0  0  0  0  0
   23.5516  -23.3845  -14.1476 O   0  0  0  0  0  0  0  0  0  0  0  0
   23.8900  -22.1112  -14.5681 C   0  0  0  0  0  0  0  0  0  0  0  0
   25.3588  -21.8272  -14.4565 C   0  0  2  0  0  0  0  0  0  0  0  0
   26.1874  -22.6446  -15.2676 N   0  0  0  0  0  0  0  0  0  0  0  0
   25.8153  -21.8681  -13.0469 C   0  0  0  0  0  0  0  0  0  0  0  0
   26.8921  -22.4490  -12.7582 O   0  0  0  0  0  0  0  0  0  0  0  0
   25.0884  -21.2746  -11.9795 N   0  0  0  0  0  0  0  0  0  0  0  0
   25.5379  -21.2769  -10.5999 C   0  0  1  0  0  0  0  0  0  0  0  0
   26.8165  -20.4935  -10.5270 C   0  0  0  0  0  0  0  0  0  0  0  0
   27.3182  -20.2799   -9.1538 C   0  0  0  0  0  0  0  0  0  0  0  0
   26.8328  -19.2575   -8.3511 C   0  0  0  0  0  0  0  0  0  0  0  0
   27.2867  -19.0450   -7.0669 C   0  0  0  0  0  0  0  0  0  0  0  0
   28.2611  -19.9115   -6.6134 C   0  0  0  0  0  0  0  0  0  0  0  0
   28.7577  -20.9348   -7.3950 C   0  0  0  0  0  0  0  0  0  0  0  0
   28.2883  -21.1248   -8.6711 C   0  0  0  0  0  0  0  0  0  0  0  0
   24.4501  -20.7770   -9.7607 C   0  0  0  0  0  0  0  0  0  0  0  0
   24.1548  -21.2420   -8.4907 O   0  0  0  0  0  0  0  0  0  0  0  0
   23.7214  -19.8570  -10.2139 O   0  0  0  0  0  0  0  0  0  0  0  0
  2  1  1  1
  2  4  1  0
  3  2  1  0
  5  4  1  0
  5  6  1  6
  7  5  1  0
  7  8  2  0
  9 10  1  0
 11 10  1  1
 11 12  1  0
 11 13  1  0
 12  7  1  0
 13 15  1  0
 14 13  2  0
 15 16  1  0
 16 24  1  0
 17 18  1  0
 16 17  1  6
 18 19  2  0
 19 20  1  0
 21 20  2  0
 22 21  1  0
 23 22  2  0
 23 18  1  0
 24 26  2  0
 24 25  1  0
M  END
$$$$
