LSF.pdb
     RDKit          3D

 26 26  0  0  1  0  0  0  0  0999 V2000
   20.6751   -7.6147  -22.8702 C   0  0  0  0  0  0  0  0  0  0  0  0
   21.3815   -7.2896  -21.5794 C   0  0  1  0  0  0  0  0  0  0  0  0
   20.8320   -8.0632  -20.4223 C   0  0  0  0  0  0  0  0  0  0  0  0
   22.8673   -7.5131  -21.7378 C   0  0  0  0  0  0  0  0  0  0  0  0
   23.6221   -7.1906  -20.4730 C   0  0  2  0  0  0  0  0  0  0  0  0
   23.6742   -5.7779  -20.2150 N   0  0  0  0  0  0  0  0  0  0  0  0
   24.9931   -7.7504  -20.6008 C   0  0  0  0  0  0  0  0  0  0  0  0
   25.1879   -8.9141  -21.0205 O   0  0  0  0  0  0  0  0  0  0  0  0
   28.5383   -5.6364  -19.2372 O   0  0  0  0  0  0  0  0  0  0  0  0
   28.5459   -6.4191  -20.3773 C   0  0  0  0  0  0  0  0  0  0  0  0
   27.4928   -7.4874  -20.3629 C   0  0  2  0  0  0  0  0  0  0  0  0
   26.1609   -7.0102  -20.2588 N   0  0  0  0  0  0  0  0  0  0  0  0
   27.7608   -8.5015  -19.3156 C   0  0  0  0  0  0  0  0  0  0  0  0
   27.4000   -8.2831  -18.1314 O   0  0  0  0  0  0  0  0  0  0  0  0
   28.4171   -9.7340  -19.5802 N   0  0  0  0  0  0  0  0  0  0  0  0
   28.6008  -10.7775  -18.5889 C   0  0  1  0  0  0  0  0  0  0  0  0
   27.2484  -11.1581  -18.0596 C   0  0  0  0  0  0  0  0  0  0  0  0
   27.2319  -12.4210  -17.2928 C   0  0  0  0  0  0  0  0  0  0  0  0
   27.3582  -12.4365  -15.9110 C   0  0  0  0  0  0  0  0  0  0  0  0
   27.3420  -13.6044  -15.1788 C   0  0  0  0  0  0  0  0  0  0  0  0
   27.1918  -14.7730  -15.8983 C   0  0  0  0  0  0  0  0  0  0  0  0
   27.0645  -14.7802  -17.2725 C   0  0  0  0  0  0  0  0  0  0  0  0
   27.0838  -13.6025  -17.9780 C   0  0  0  0  0  0  0  0  0  0  0  0
   29.3608  -11.8657  -19.2018 C   0  0  0  0  0  0  0  0  0  0  0  0
   30.2357  -12.6973  -18.5241 O   0  0  0  0  0  0  0  0  0  0  0  0
   29.2185  -12.0723  -20.4347 O   0  0  0  0  0  0  0  0  0  0  0  0
  2  1  1  6
  2  4  1  0
  3  2  1  0
  5  4  1  0
  5  6  1  6
  7  5  1  0
  7  8  2  0
  9 10  1  0
 11 10  1  1
 11 12  1  0
 11 13  1  0
 12  7  1  0
 13 15  1  0
 14 13  2  0
 15 16  1  0
 16 24  1  0
 17 18  1  0
 16 17  1  6
 18 19  2  0
 19 20  1  0
 21 20  2  0
 22 21  1  0
 23 22  2  0
 23 18  1  0
 24 26  2  0
 24 25  1  0
M  END
$$$$
