LSF.pdb
     RDKit          3D

 26 26  0  0  1  0  0  0  0  0999 V2000
   18.9957  -15.8162  -14.9259 C   0  0  0  0  0  0  0  0  0  0  0  0
   17.7713  -15.1682  -15.5191 C   0  0  1  0  0  0  0  0  0  0  0  0
   16.6570  -15.0481  -14.5275 C   0  0  0  0  0  0  0  0  0  0  0  0
   18.1360  -13.8245  -16.1059 C   0  0  0  0  0  0  0  0  0  0  0  0
   16.9572  -13.1655  -16.7763 C   0  0  2  0  0  0  0  0  0  0  0  0
   16.6673  -13.7434  -18.0597 N   0  0  0  0  0  0  0  0  0  0  0  0
   17.2563  -11.7157  -16.9105 C   0  0  0  0  0  0  0  0  0  0  0  0
   18.1149  -11.2973  -17.7203 O   0  0  0  0  0  0  0  0  0  0  0  0
   14.5548   -8.6121  -15.7199 O   0  0  0  0  0  0  0  0  0  0  0  0
   15.5640   -8.5487  -16.6634 C   0  0  0  0  0  0  0  0  0  0  0  0
   16.7880   -9.3198  -16.2664 C   0  0  2  0  0  0  0  0  0  0  0  0
   16.5949  -10.7193  -16.1368 N   0  0  0  0  0  0  0  0  0  0  0  0
   17.4035   -8.7680  -15.0360 C   0  0  0  0  0  0  0  0  0  0  0  0
   17.6798   -9.5362  -14.0802 O   0  0  0  0  0  0  0  0  0  0  0  0
   17.7055   -7.3889  -14.8722 N   0  0  0  0  0  0  0  0  0  0  0  0
   18.3122   -6.8340  -13.6767 C   0  0  1  0  0  0  0  0  0  0  0  0
   19.6188   -7.5376  -13.4497 C   0  0  0  0  0  0  0  0  0  0  0  0
   20.4208   -6.9824  -12.3399 C   0  0  0  0  0  0  0  0  0  0  0  0
   20.2398   -7.4009  -11.0293 C   0  0  0  0  0  0  0  0  0  0  0  0
   20.9806   -6.8964   -9.9818 C   0  0  0  0  0  0  0  0  0  0  0  0
   21.9236   -5.9416  -10.3060 C   0  0  0  0  0  0  0  0  0  0  0  0
   22.1198   -5.5113  -11.6026 C   0  0  0  0  0  0  0  0  0  0  0  0
   21.3684   -6.0302  -12.6279 C   0  0  0  0  0  0  0  0  0  0  0  0
   18.4033   -5.3837  -13.8376 C   0  0  0  0  0  0  0  0  0  0  0  0
   18.3712   -4.4702  -12.7979 O   0  0  0  0  0  0  0  0  0  0  0  0
   18.5195   -4.9186  -15.0008 O   0  0  0  0  0  0  0  0  0  0  0  0
  2  1  1  1
  2  4  1  0
  3  2  1  0
  5  4  1  0
  5  6  1  6
  7  5  1  0
  7  8  2  0
  9 10  1  0
 11 10  1  1
 11 12  1  0
 11 13  1  0
 12  7  1  0
 13 15  1  0
 14 13  2  0
 15 16  1  0
 16 24  1  0
 17 18  1  0
 16 17  1  6
 18 19  2  0
 19 20  1  0
 21 20  2  0
 22 21  1  0
 23 22  2  0
 23 18  1  0
 24 26  2  0
 24 25  1  0
M  END
$$$$
