LSF.pdb
     RDKit          3D

 26 26  0  0  1  0  0  0  0  0999 V2000
   36.8120   -6.8526  -11.5730 C   0  0  0  0  0  0  0  0  0  0  0  0
   38.1841   -7.4056  -11.2862 C   0  0  1  0  0  0  0  0  0  0  0  0
   39.2726   -6.4937  -11.7585 C   0  0  0  0  0  0  0  0  0  0  0  0
   38.3171   -7.7076   -9.8118 C   0  0  0  0  0  0  0  0  0  0  0  0
   39.6694   -8.2837   -9.4759 C   0  0  2  0  0  0  0  0  0  0  0  0
   39.7763   -9.6700   -9.8389 N   0  0  0  0  0  0  0  0  0  0  0  0
   39.8954   -8.1053   -8.0177 C   0  0  0  0  0  0  0  0  0  0  0  0
   39.2801   -8.7934   -7.1715 O   0  0  0  0  0  0  0  0  0  0  0  0
   43.1636   -5.8158   -6.5662 O   0  0  0  0  0  0  0  0  0  0  0  0
   42.5456   -6.7760   -5.7858 C   0  0  0  0  0  0  0  0  0  0  0  0
   41.0932   -6.9550   -6.1160 C   0  0  2  0  0  0  0  0  0  0  0  0
   40.8148   -7.1523   -7.4930 N   0  0  0  0  0  0  0  0  0  0  0  0
   40.2720   -5.8447   -5.5776 C   0  0  0  0  0  0  0  0  0  0  0  0
   39.2922   -5.4179   -6.2395 O   0  0  0  0  0  0  0  0  0  0  0  0
   40.5355   -5.2213   -4.3279 N   0  0  0  0  0  0  0  0  0  0  0  0
   39.7718   -4.1018   -3.8096 C   0  0  1  0  0  0  0  0  0  0  0  0
   38.3308   -4.5167   -3.7370 C   0  0  0  0  0  0  0  0  0  0  0  0
   37.4447   -3.5189   -3.1028 C   0  0  0  0  0  0  0  0  0  0  0  0
   37.0078   -3.6598   -1.7933 C   0  0  0  0  0  0  0  0  0  0  0  0
   36.1834   -2.7379   -1.1843 C   0  0  0  0  0  0  0  0  0  0  0  0
   35.8094   -1.6533   -1.9522 C   0  0  0  0  0  0  0  0  0  0  0  0
   36.2324   -1.4938   -3.2562 C   0  0  0  0  0  0  0  0  0  0  0  0
   37.0535   -2.4270   -3.8392 C   0  0  0  0  0  0  0  0  0  0  0  0
   40.3672   -3.6869   -2.5404 C   0  0  0  0  0  0  0  0  0  0  0  0
   41.3873   -4.3592   -1.8895 O   0  0  0  0  0  0  0  0  0  0  0  0
   39.9297   -2.6443   -1.9887 O   0  0  0  0  0  0  0  0  0  0  0  0
  2  1  1  1
  2  4  1  0
  3  2  1  0
  5  4  1  0
  5  6  1  1
  7  5  1  0
  7  8  2  0
  9 10  1  0
 11 10  1  6
 11 12  1  0
 11 13  1  0
 12  7  1  0
 13 15  1  0
 14 13  2  0
 15 16  1  0
 16 24  1  0
 17 18  1  0
 16 17  1  1
 18 19  2  0
 19 20  1  0
 21 20  2  0
 22 21  1  0
 23 22  2  0
 23 18  1  0
 24 26  2  0
 24 25  1  0
M  END
$$$$
