LSF.pdb
     RDKit          3D

 26 26  0  0  1  0  0  0  0  0999 V2000
   15.7415  -12.6103  -19.1365 C   0  0  0  0  0  0  0  0  0  0  0  0
   16.9490  -13.2112  -18.4643 C   0  0  1  0  0  0  0  0  0  0  0  0
   17.9703  -13.6832  -19.4508 C   0  0  0  0  0  0  0  0  0  0  0  0
   17.5394  -12.2193  -17.4894 C   0  0  0  0  0  0  0  0  0  0  0  0
   18.7713  -12.7632  -16.8112 C   0  0  2  0  0  0  0  0  0  0  0  0
   18.4645  -13.8301  -15.8987 N   0  0  0  0  0  0  0  0  0  0  0  0
   19.4373  -11.6410  -16.0996 C   0  0  0  0  0  0  0  0  0  0  0  0
   18.9214  -11.1083  -15.0905 O   0  0  0  0  0  0  0  0  0  0  0  0
   23.3725  -10.2104  -17.1992 O   0  0  0  0  0  0  0  0  0  0  0  0
   22.8616  -10.1130  -15.9177 C   0  0  0  0  0  0  0  0  0  0  0  0
   21.3644  -10.0236  -15.8879 C   0  0  2  0  0  0  0  0  0  0  0  0
   20.6902  -11.1040  -16.5130 N   0  0  0  0  0  0  0  0  0  0  0  0
   20.8856   -8.7315  -16.4340 C   0  0  0  0  0  0  0  0  0  0  0  0
   20.3136   -8.7027  -17.5530 O   0  0  0  0  0  0  0  0  0  0  0  0
   21.0399   -7.4959  -15.7489 N   0  0  0  0  0  0  0  0  0  0  0  0
   20.6584   -6.2123  -16.3076 C   0  0  1  0  0  0  0  0  0  0  0  0
   19.2148   -6.2924  -16.7116 C   0  0  0  0  0  0  0  0  0  0  0  0
   18.6294   -5.0006  -17.1261 C   0  0  0  0  0  0  0  0  0  0  0  0
   17.7050   -4.3323  -16.3360 C   0  0  0  0  0  0  0  0  0  0  0  0
   17.1506   -3.1252  -16.7049 C   0  0  0  0  0  0  0  0  0  0  0  0
   17.5665   -2.6078  -17.9154 C   0  0  0  0  0  0  0  0  0  0  0  0
   18.4846   -3.2559  -18.7165 C   0  0  0  0  0  0  0  0  0  0  0  0
   19.0217   -4.4575  -18.3255 C   0  0  0  0  0  0  0  0  0  0  0  0
   20.9770   -5.1722  -15.3308 C   0  0  0  0  0  0  0  0  0  0  0  0
   21.2467   -3.8509  -15.6435 O   0  0  0  0  0  0  0  0  0  0  0  0
   21.0120   -5.4877  -14.1133 O   0  0  0  0  0  0  0  0  0  0  0  0
  2  1  1  6
  2  4  1  0
  3  2  1  0
  5  4  1  0
  5  6  1  1
  7  5  1  0
  7  8  2  0
  9 10  1  0
 11 10  1  6
 11 12  1  0
 11 13  1  0
 12  7  1  0
 13 15  1  0
 14 13  2  0
 15 16  1  0
 16 24  1  0
 17 18  1  0
 16 17  1  1
 18 19  2  0
 19 20  1  0
 21 20  2  0
 22 21  1  0
 23 22  2  0
 23 18  1  0
 24 26  2  0
 24 25  1  0
M  END
$$$$
