LSF.pdb
     RDKit          3D

 26 26  0  0  1  0  0  0  0  0999 V2000
   17.9050  -12.5238  -13.3898 C   0  0  0  0  0  0  0  0  0  0  0  0
   17.3285  -13.7165  -14.1080 C   0  0  1  0  0  0  0  0  0  0  0  0
   18.1187  -14.9631  -13.8609 C   0  0  0  0  0  0  0  0  0  0  0  0
   15.8787  -13.8956  -13.7222 C   0  0  0  0  0  0  0  0  0  0  0  0
   15.2525  -15.0750  -14.4225 C   0  0  2  0  0  0  0  0  0  0  0  0
   15.1468  -14.8728  -15.8413 N   0  0  0  0  0  0  0  0  0  0  0  0
   13.9110  -15.3047  -13.8250 C   0  0  0  0  0  0  0  0  0  0  0  0
   12.9555  -14.5252  -14.0433 O   0  0  0  0  0  0  0  0  0  0  0  0
   12.9571  -18.8575  -11.5019 O   0  0  0  0  0  0  0  0  0  0  0  0
   12.0599  -18.1900  -12.3157 C   0  0  0  0  0  0  0  0  0  0  0  0
   12.3533  -16.7236  -12.4340 C   0  0  2  0  0  0  0  0  0  0  0  0
   13.6270  -16.4123  -12.9755 N   0  0  0  0  0  0  0  0  0  0  0  0
   12.1568  -16.0235  -11.1423 C   0  0  0  0  0  0  0  0  0  0  0  0
   13.1011  -15.9691  -10.3143 O   0  0  0  0  0  0  0  0  0  0  0  0
   10.9343  -15.3965  -10.7789 N   0  0  0  0  0  0  0  0  0  0  0  0
   10.7259  -14.7082   -9.5187 C   0  0  1  0  0  0  0  0  0  0  0  0
   10.4429  -13.2648   -9.8194 C   0  0  0  0  0  0  0  0  0  0  0  0
   11.5855  -12.5328  -10.4040 C   0  0  0  0  0  0  0  0  0  0  0  0
   11.6441  -12.2342  -11.7579 C   0  0  0  0  0  0  0  0  0  0  0  0
   12.7003  -11.5498  -12.3203 C   0  0  0  0  0  0  0  0  0  0  0  0
   13.7100  -11.1714  -11.4582 C   0  0  0  0  0  0  0  0  0  0  0  0
   13.6717  -11.4581  -10.1087 C   0  0  0  0  0  0  0  0  0  0  0  0
   12.6077  -12.1412   -9.5737 C   0  0  0  0  0  0  0  0  0  0  0  0
    9.6776  -15.4095   -8.7792 C   0  0  0  0  0  0  0  0  0  0  0  0
    9.2290  -15.0557   -7.5183 O   0  0  0  0  0  0  0  0  0  0  0  0
    9.1353  -16.4094   -9.3167 O   0  0  0  0  0  0  0  0  0  0  0  0
  2  1  1  1
  2  4  1  0
  3  2  1  0
  5  4  1  0
  5  6  1  6
  7  5  1  0
  7  8  2  0
  9 10  1  0
 11 10  1  1
 11 12  1  0
 11 13  1  0
 12  7  1  0
 13 15  1  0
 14 13  2  0
 15 16  1  0
 16 24  1  0
 17 18  1  0
 16 17  1  6
 18 19  2  0
 19 20  1  0
 21 20  2  0
 22 21  1  0
 23 22  2  0
 23 18  1  0
 24 26  2  0
 24 25  1  0
M  END
$$$$
