SMF.pdb
     RDKit          3D

 26 26  0  0  1  0  0  0  0  0999 V2000
   10.1428  -18.6108   20.0788 O   0  0  0  0  0  0  0  0  0  0  0  0
    8.8337  -18.2871   19.8233 C   0  0  0  0  0  0  0  0  0  0  0  0
    8.5393  -16.8217   19.8419 C   0  0  2  0  0  0  0  0  0  0  0  0
    9.2205  -16.1449   18.7878 N   0  0  0  0  0  0  0  0  0  0  0  0
    8.8045  -16.2667   21.1870 C   0  0  0  0  0  0  0  0  0  0  0  0
    9.9630  -15.8140   21.3971 O   0  0  0  0  0  0  0  0  0  0  0  0
    6.9563  -11.9368   25.7056 C   0  0  0  0  0  0  0  0  0  0  0  0
    5.9111  -13.4117   25.5036 S   0  0  0  0  0  0  0  0  0  0  0  0
    6.9753  -14.9071   25.6368 C   0  0  0  0  0  0  0  0  0  0  0  0
    6.9239  -15.5740   24.3078 C   0  0  0  0  0  0  0  0  0  0  0  0
    8.2115  -15.5487   23.5197 C   0  0  2  0  0  0  0  0  0  0  0  0
    7.8713  -16.2087   22.2323 N   0  0  0  0  0  0  0  0  0  0  0  0
    9.2255  -16.3604   24.2203 C   0  0  0  0  0  0  0  0  0  0  0  0
    9.2149  -17.6147   24.0410 O   0  0  0  0  0  0  0  0  0  0  0  0
   10.2100  -15.8325   25.0733 N   0  0  0  0  0  0  0  0  0  0  0  0
   11.2514  -16.7020   25.5756 C   0  0  1  0  0  0  0  0  0  0  0  0
   12.2069  -15.8013   26.3593 C   0  0  0  0  0  0  0  0  0  0  0  0
   11.5271  -15.1749   27.5069 C   0  0  0  0  0  0  0  0  0  0  0  0
   11.5262  -15.7639   28.7662 C   0  0  0  0  0  0  0  0  0  0  0  0
   10.9060  -15.1815   29.8543 C   0  0  0  0  0  0  0  0  0  0  0  0
   10.2637  -13.9661   29.6756 C   0  0  0  0  0  0  0  0  0  0  0  0
   10.2441  -13.3573   28.4509 C   0  0  0  0  0  0  0  0  0  0  0  0
   10.8761  -13.9721   27.3881 C   0  0  0  0  0  0  0  0  0  0  0  0
   10.6710  -17.7420   26.4400 C   0  0  0  0  0  0  0  0  0  0  0  0
   11.3528  -18.6677   26.9419 O   0  0  0  0  0  0  0  0  0  0  0  0
    9.2967  -17.7393   26.7469 O   0  0  0  0  0  0  0  0  0  0  0  0
  1  2  1  0
  2  3  1  0
  3  5  1  0
  3  4  1  6
  5  6  2  0
  7  8  1  0
  8  9  1  0
  9 10  1  0
 11 10  1  1
 11 13  1  0
 12 11  1  0
 12  5  1  0
 13 14  2  0
 15 13  1  0
 15 16  1  0
 16 24  1  0
 16 17  1  1
 18 17  1  0
 18 19  2  0
 20 19  1  0
 21 20  2  0
 22 23  2  0
 22 21  1  0
 23 18  1  0
 24 25  2  0
 24 26  1  0
M  END
$$$$
