SMF.pdb
     RDKit          3D

 26 26  0  0  1  0  0  0  0  0999 V2000
    9.4312  -17.0534   19.8627 O   0  0  0  0  0  0  0  0  0  0  0  0
    8.0997  -16.7324   19.9519 C   0  0  0  0  0  0  0  0  0  0  0  0
    7.8253  -15.3176   20.3488 C   0  0  2  0  0  0  0  0  0  0  0  0
    8.3555  -14.4014   19.3935 N   0  0  0  0  0  0  0  0  0  0  0  0
    8.2853  -15.0796   21.7343 C   0  0  0  0  0  0  0  0  0  0  0  0
    9.4275  -14.5627   21.8733 O   0  0  0  0  0  0  0  0  0  0  0  0
    7.5991  -11.5889   25.9729 C   0  0  0  0  0  0  0  0  0  0  0  0
    6.2920  -12.7775   26.4058 S   0  0  0  0  0  0  0  0  0  0  0  0
    5.9948  -13.8749   24.9587 C   0  0  0  0  0  0  0  0  0  0  0  0
    6.8876  -15.0514   25.1386 C   0  0  0  0  0  0  0  0  0  0  0  0
    8.0997  -15.0888   24.2390 C   0  0  2  0  0  0  0  0  0  0  0  0
    7.5512  -15.3841   22.8898 N   0  0  0  0  0  0  0  0  0  0  0  0
    8.9772  -16.2008   24.6528 C   0  0  0  0  0  0  0  0  0  0  0  0
    8.8568  -17.3113   24.0546 O   0  0  0  0  0  0  0  0  0  0  0  0
    9.9455  -16.1090   25.6674 N   0  0  0  0  0  0  0  0  0  0  0  0
   10.8323  -17.2275   25.9028 C   0  0  1  0  0  0  0  0  0  0  0  0
   11.9716  -16.6841   26.7661 C   0  0  0  0  0  0  0  0  0  0  0  0
   11.4858  -15.6546   27.7019 C   0  0  0  0  0  0  0  0  0  0  0  0
   11.3747  -15.9007   29.0656 C   0  0  0  0  0  0  0  0  0  0  0  0
   10.9351  -14.9411   29.9566 C   0  0  0  0  0  0  0  0  0  0  0  0
   10.5945  -13.6905   29.4650 C   0  0  0  0  0  0  0  0  0  0  0  0
   10.6913  -13.4125   28.1293 C   0  0  0  0  0  0  0  0  0  0  0  0
   11.1353  -14.3991   27.2712 C   0  0  0  0  0  0  0  0  0  0  0  0
   10.1119  -18.3099   26.5919 C   0  0  0  0  0  0  0  0  0  0  0  0
   10.6630  -19.3838   26.9337 O   0  0  0  0  0  0  0  0  0  0  0  0
    8.7449  -18.1807   26.9042 O   0  0  0  0  0  0  0  0  0  0  0  0
  1  2  1  0
  2  3  1  0
  3  5  1  0
  3  4  1  6
  5  6  2  0
  7  8  1  0
  8  9  1  0
  9 10  1  0
 11 10  1  1
 11 13  1  0
 12 11  1  0
 12  5  1  0
 13 14  2  0
 15 13  1  0
 15 16  1  0
 16 24  1  0
 16 17  1  1
 18 17  1  0
 18 19  2  0
 20 19  1  0
 21 20  2  0
 22 23  2  0
 22 21  1  0
 23 18  1  0
 24 25  2  0
 24 26  1  0
M  END
$$$$
