SMF.pdb
     RDKit          3D

 26 26  0  0  1  0  0  0  0  0999 V2000
    7.7071  -18.8576   23.3607 O   0  0  0  0  0  0  0  0  0  0  0  0
    7.3416  -18.9029   22.0385 C   0  0  0  0  0  0  0  0  0  0  0  0
    6.9563  -17.5825   21.4532 C   0  0  2  0  0  0  0  0  0  0  0  0
    6.7295  -17.6866   20.0494 N   0  0  0  0  0  0  0  0  0  0  0  0
    7.9465  -16.5505   21.8305 C   0  0  0  0  0  0  0  0  0  0  0  0
    8.8868  -16.3402   21.0164 O   0  0  0  0  0  0  0  0  0  0  0  0
    7.6791  -11.7511   26.1208 C   0  0  0  0  0  0  0  0  0  0  0  0
    6.2252  -12.6081   25.4424 S   0  0  0  0  0  0  0  0  0  0  0  0
    6.8048  -13.9761   24.3565 C   0  0  0  0  0  0  0  0  0  0  0  0
    8.2487  -13.7225   24.1027 C   0  0  0  0  0  0  0  0  0  0  0  0
    8.9613  -14.7827   23.2977 C   0  0  2  0  0  0  0  0  0  0  0  0
    7.9148  -15.7989   23.0140 N   0  0  0  0  0  0  0  0  0  0  0  0
   10.0134  -15.3985   24.1296 C   0  0  0  0  0  0  0  0  0  0  0  0
   11.1184  -14.7890   24.2431 O   0  0  0  0  0  0  0  0  0  0  0  0
    9.8695  -16.6190   24.8115 N   0  0  0  0  0  0  0  0  0  0  0  0
   10.9596  -17.1063   25.6281 C   0  0  1  0  0  0  0  0  0  0  0  0
   10.3684  -17.3416   27.0187 C   0  0  0  0  0  0  0  0  0  0  0  0
    9.9895  -16.0692   27.6582 C   0  0  0  0  0  0  0  0  0  0  0  0
   10.9445  -15.1739   28.1265 C   0  0  0  0  0  0  0  0  0  0  0  0
   10.6047  -13.9712   28.7147 C   0  0  0  0  0  0  0  0  0  0  0  0
    9.2611  -13.6532   28.8385 C   0  0  0  0  0  0  0  0  0  0  0  0
    8.2940  -14.5097   28.3890 C   0  0  0  0  0  0  0  0  0  0  0  0
    8.6750  -15.7025   27.8067 C   0  0  0  0  0  0  0  0  0  0  0  0
   11.5001  -18.3524   25.0618 C   0  0  0  0  0  0  0  0  0  0  0  0
   12.4392  -18.9907   25.5952 O   0  0  0  0  0  0  0  0  0  0  0  0
   10.9724  -18.8917   23.8729 O   0  0  0  0  0  0  0  0  0  0  0  0
  1  2  1  0
  2  3  1  0
  3  5  1  0
  3  4  1  6
  5  6  2  0
  7  8  1  0
  8  9  1  0
  9 10  1  0
 11 10  1  1
 11 13  1  0
 12 11  1  0
 12  5  1  0
 13 14  2  0
 15 13  1  0
 15 16  1  0
 16 24  1  0
 16 17  1  1
 18 17  1  0
 18 19  2  0
 20 19  1  0
 21 20  2  0
 22 23  2  0
 22 21  1  0
 23 18  1  0
 24 25  2  0
 24 26  1  0
M  END
$$$$
