SMF.pdb
     RDKit          3D

 26 26  0  0  1  0  0  0  0  0999 V2000
   11.1306  -20.0070   20.8227 O   0  0  0  0  0  0  0  0  0  0  0  0
   11.2928  -19.3686   19.6185 C   0  0  0  0  0  0  0  0  0  0  0  0
   10.2209  -18.3807   19.2878 C   0  0  2  0  0  0  0  0  0  0  0  0
   10.4732  -17.7447   18.0369 N   0  0  0  0  0  0  0  0  0  0  0  0
   10.0287  -17.4423   20.4150 C   0  0  0  0  0  0  0  0  0  0  0  0
   11.0416  -16.7919   20.7923 O   0  0  0  0  0  0  0  0  0  0  0  0
    7.7787  -12.1577   20.5648 C   0  0  0  0  0  0  0  0  0  0  0  0
    6.3883  -13.3264   20.4679 S   0  0  0  0  0  0  0  0  0  0  0  0
    7.0645  -15.0289   20.2927 C   0  0  0  0  0  0  0  0  0  0  0  0
    7.2579  -15.5441   21.6750 C   0  0  0  0  0  0  0  0  0  0  0  0
    8.6426  -16.0586   21.9872 C   0  0  2  0  0  0  0  0  0  0  0  0
    8.8160  -17.2272   21.0856 N   0  0  0  0  0  0  0  0  0  0  0  0
    8.6833  -16.5241   23.3871 C   0  0  0  0  0  0  0  0  0  0  0  0
    8.5299  -17.7621   23.6097 O   0  0  0  0  0  0  0  0  0  0  0  0
    8.8866  -15.6833   24.4948 N   0  0  0  0  0  0  0  0  0  0  0  0
    8.8702  -16.2497   25.8258 C   0  0  1  0  0  0  0  0  0  0  0  0
    9.1856  -15.0942   26.7765 C   0  0  0  0  0  0  0  0  0  0  0  0
    8.3888  -13.8997   26.4452 C   0  0  0  0  0  0  0  0  0  0  0  0
    8.8613  -12.9246   25.5741 C   0  0  0  0  0  0  0  0  0  0  0  0
    8.1199  -11.8073   25.2427 C   0  0  0  0  0  0  0  0  0  0  0  0
    6.8606  -11.6606   25.8033 C   0  0  0  0  0  0  0  0  0  0  0  0
    6.3631  -12.5998   26.6643 C   0  0  0  0  0  0  0  0  0  0  0  0
    7.1357  -13.7028   26.9701 C   0  0  0  0  0  0  0  0  0  0  0  0
    7.5491  -16.8304   26.1139 C   0  0  0  0  0  0  0  0  0  0  0  0
    7.3177  -17.5209   27.1354 O   0  0  0  0  0  0  0  0  0  0  0  0
    6.4667  -16.6288   25.2361 O   0  0  0  0  0  0  0  0  0  0  0  0
  1  2  1  0
  2  3  1  0
  3  5  1  0
  3  4  1  6
  5  6  2  0
  7  8  1  0
  8  9  1  0
  9 10  1  0
 11 10  1  6
 11 13  1  0
 12 11  1  0
 12  5  1  0
 13 14  2  0
 15 13  1  0
 15 16  1  0
 16 24  1  0
 16 17  1  1
 18 17  1  0
 18 19  2  0
 20 19  1  0
 21 20  2  0
 22 23  2  0
 22 21  1  0
 23 18  1  0
 24 25  2  0
 24 26  1  0
M  END
$$$$
