SMF.pdb
     RDKit          3D

 26 26  0  0  1  0  0  0  0  0999 V2000
    9.4130  -19.4610   20.9394 O   0  0  0  0  0  0  0  0  0  0  0  0
    8.2778  -18.9154   20.3942 C   0  0  0  0  0  0  0  0  0  0  0  0
    8.4469  -17.5290   19.8616 C   0  0  2  0  0  0  0  0  0  0  0  0
    9.2550  -17.5223   18.6869 N   0  0  0  0  0  0  0  0  0  0  0  0
    8.9283  -16.6282   20.9315 C   0  0  0  0  0  0  0  0  0  0  0  0
   10.1410  -16.2844   20.8824 O   0  0  0  0  0  0  0  0  0  0  0  0
    6.8291  -11.8746   26.8311 C   0  0  0  0  0  0  0  0  0  0  0  0
    6.5947  -13.3628   25.8117 S   0  0  0  0  0  0  0  0  0  0  0  0
    7.7850  -13.3062   24.4093 C   0  0  0  0  0  0  0  0  0  0  0  0
    7.4974  -14.5013   23.5711 C   0  0  0  0  0  0  0  0  0  0  0  0
    8.7060  -15.1770   22.9692 C   0  0  2  0  0  0  0  0  0  0  0  0
    8.1425  -16.1355   21.9833 N   0  0  0  0  0  0  0  0  0  0  0  0
    9.4137  -15.9327   24.0209 C   0  0  0  0  0  0  0  0  0  0  0  0
    8.9139  -17.0317   24.4058 O   0  0  0  0  0  0  0  0  0  0  0  0
   10.6130  -15.5158   24.6236 N   0  0  0  0  0  0  0  0  0  0  0  0
   11.2782  -16.3962   25.5592 C   0  0  1  0  0  0  0  0  0  0  0  0
   10.2726  -16.6498   26.6830 C   0  0  0  0  0  0  0  0  0  0  0  0
   10.0397  -15.4287   27.4744 C   0  0  0  0  0  0  0  0  0  0  0  0
   11.0226  -14.8941   28.2995 C   0  0  0  0  0  0  0  0  0  0  0  0
   10.8238  -13.7424   29.0356 C   0  0  0  0  0  0  0  0  0  0  0  0
    9.5974  -13.1030   28.9427 C   0  0  0  0  0  0  0  0  0  0  0  0
    8.6069  -13.6001   28.1410 C   0  0  0  0  0  0  0  0  0  0  0  0
    8.8453  -14.7541   27.4209 C   0  0  0  0  0  0  0  0  0  0  0  0
   11.6587  -17.6514   24.8921 C   0  0  0  0  0  0  0  0  0  0  0  0
   12.2721  -18.5749   25.4792 O   0  0  0  0  0  0  0  0  0  0  0  0
   11.3411  -17.8727   23.5382 O   0  0  0  0  0  0  0  0  0  0  0  0
  1  2  1  0
  2  3  1  0
  3  5  1  0
  3  4  1  6
  5  6  2  0
  7  8  1  0
  8  9  1  0
  9 10  1  0
 11 10  1  1
 11 13  1  0
 12 11  1  0
 12  5  1  0
 13 14  2  0
 15 13  1  0
 15 16  1  0
 16 24  1  0
 16 17  1  1
 18 17  1  0
 18 19  2  0
 20 19  1  0
 21 20  2  0
 22 23  2  0
 22 21  1  0
 23 18  1  0
 24 25  2  0
 24 26  1  0
M  END
$$$$
