SMF.pdb
     RDKit          3D

 26 26  0  0  1  0  0  0  0  0999 V2000
    7.0613  -19.6206   24.1427 O   0  0  0  0  0  0  0  0  0  0  0  0
    5.9713  -19.3715   23.3467 C   0  0  0  0  0  0  0  0  0  0  0  0
    6.2995  -19.0457   21.9252 C   0  0  2  0  0  0  0  0  0  0  0  0
    6.5369  -20.2291   21.1660 N   0  0  0  0  0  0  0  0  0  0  0  0
    7.4021  -18.0613   21.8705 C   0  0  0  0  0  0  0  0  0  0  0  0
    8.5556  -18.5123   21.6314 O   0  0  0  0  0  0  0  0  0  0  0  0
    9.0712  -12.4642   19.2171 C   0  0  0  0  0  0  0  0  0  0  0  0
    7.3108  -12.7501   19.5743 S   0  0  0  0  0  0  0  0  0  0  0  0
    7.1215  -14.4422   20.2727 C   0  0  0  0  0  0  0  0  0  0  0  0
    7.8561  -14.4428   21.5665 C   0  0  0  0  0  0  0  0  0  0  0  0
    8.4337  -15.7741   21.9833 C   0  0  2  0  0  0  0  0  0  0  0  0
    7.2581  -16.6797   22.0633 N   0  0  0  0  0  0  0  0  0  0  0  0
    9.0307  -15.6451   23.3267 C   0  0  0  0  0  0  0  0  0  0  0  0
   10.1226  -15.0118   23.4369 O   0  0  0  0  0  0  0  0  0  0  0  0
    8.4643  -16.1758   24.4984 N   0  0  0  0  0  0  0  0  0  0  0  0
    9.1574  -16.0103   25.7574 C   0  0  1  0  0  0  0  0  0  0  0  0
    8.0812  -15.6554   26.7843 C   0  0  0  0  0  0  0  0  0  0  0  0
    7.5361  -14.3083   26.5400 C   0  0  0  0  0  0  0  0  0  0  0  0
    8.3216  -13.1683   26.6663 C   0  0  0  0  0  0  0  0  0  0  0  0
    7.8285  -11.9005   26.4264 C   0  0  0  0  0  0  0  0  0  0  0  0
    6.5018  -11.7691   26.0466 C   0  0  0  0  0  0  0  0  0  0  0  0
    5.6993  -12.8686   25.9122 C   0  0  0  0  0  0  0  0  0  0  0  0
    6.2303  -14.1187   26.1612 C   0  0  0  0  0  0  0  0  0  0  0  0
    9.8511  -17.2558   26.1222 C   0  0  0  0  0  0  0  0  0  0  0  0
   10.5058  -17.3835   27.1847 O   0  0  0  0  0  0  0  0  0  0  0  0
    9.8058  -18.3802   25.2758 O   0  0  0  0  0  0  0  0  0  0  0  0
  1  2  1  0
  2  3  1  0
  3  5  1  0
  3  4  1  6
  5  6  2  0
  7  8  1  0
  8  9  1  0
  9 10  1  0
 11 10  1  1
 11 13  1  0
 12 11  1  0
 12  5  1  0
 13 14  2  0
 15 13  1  0
 15 16  1  0
 16 24  1  0
 16 17  1  1
 18 17  1  0
 18 19  2  0
 20 19  1  0
 21 20  2  0
 22 23  2  0
 22 21  1  0
 23 18  1  0
 24 25  2  0
 24 26  1  0
M  END
$$$$
