SMF.pdb
     RDKit          3D

 26 26  0  0  1  0  0  0  0  0999 V2000
   17.8012  -56.9931    7.9715 O   0  0  0  0  0  0  0  0  0  0  0  0
   19.0994  -57.4268    7.8704 C   0  0  0  0  0  0  0  0  0  0  0  0
   19.2558  -58.7938    7.2862 C   0  0  2  0  0  0  0  0  0  0  0  0
   19.5725  -59.7523    8.2932 N   0  0  0  0  0  0  0  0  0  0  0  0
   20.2157  -58.7595    6.1614 C   0  0  0  0  0  0  0  0  0  0  0  0
   20.3675  -57.6519    5.5771 O   0  0  0  0  0  0  0  0  0  0  0  0
   26.2818  -59.4362    6.0928 C   0  0  0  0  0  0  0  0  0  0  0  0
   25.2470  -58.4900    4.9342 S   0  0  0  0  0  0  0  0  0  0  0  0
   23.8699  -57.7146    5.8769 C   0  0  0  0  0  0  0  0  0  0  0  0
   22.6111  -58.2178    5.2641 C   0  0  0  0  0  0  0  0  0  0  0  0
   22.3967  -59.7096    5.3559 C   0  0  2  0  0  0  0  0  0  0  0  0
   20.9594  -59.8569    5.7039 N   0  0  0  0  0  0  0  0  0  0  0  0
   23.2141  -60.2505    6.4591 C   0  0  0  0  0  0  0  0  0  0  0  0
   22.9568  -61.4191    6.8760 O   0  0  0  0  0  0  0  0  0  0  0  0
   24.2670  -59.5551    7.0781 N   0  0  0  0  0  0  0  0  0  0  0  0
   25.5551  -60.1988    7.2174 C   0  0  1  0  0  0  0  0  0  0  0  0
   25.7931  -60.9474    5.9054 C   0  0  0  0  0  0  0  0  0  0  0  0
   24.5488  -61.5621    5.4099 C   0  0  0  0  0  0  0  0  0  0  0  0
   24.2471  -61.6098    4.0537 C   0  0  0  0  0  0  0  0  0  0  0  0
   23.0920  -62.1956    3.5735 C   0  0  0  0  0  0  0  0  0  0  0  0
   22.2073  -62.7534    4.4833 C   0  0  0  0  0  0  0  0  0  0  0  0
   22.4713  -62.7250    5.8251 C   0  0  0  0  0  0  0  0  0  0  0  0
   23.6373  -62.1300    6.2650 C   0  0  0  0  0  0  0  0  0  0  0  0
   26.6024  -59.1925    7.4536 C   0  0  0  0  0  0  0  0  0  0  0  0
   27.5222  -59.3518    8.2917 O   0  0  0  0  0  0  0  0  0  0  0  0
   26.6160  -57.9837    6.7314 O   0  0  0  0  0  0  0  0  0  0  0  0
  1  2  1  0
  2  3  1  0
  3  5  1  0
  3  4  1  1
  5  6  2  0
  7  8  1  0
  8  9  1  0
  9 10  1  0
 11 10  1  1
 11 13  1  0
 12 11  1  0
 12  5  1  0
 13 14  2  0
 15 13  1  0
 15 16  1  0
 16 24  1  0
 16 17  1  6
 18 17  1  0
 18 19  2  0
 20 19  1  0
 21 20  2  0
 22 23  2  0
 22 21  1  0
 23 18  1  0
 24 25  2  0
 24 26  1  0
M  END
$$$$
