SMF.pdb
     RDKit          3D

 26 26  0  0  1  0  0  0  0  0999 V2000
    9.9006  -18.6034   20.4551 O   0  0  0  0  0  0  0  0  0  0  0  0
   10.2718  -17.6437   19.5468 C   0  0  0  0  0  0  0  0  0  0  0  0
    9.5075  -16.3629   19.6465 C   0  0  2  0  0  0  0  0  0  0  0  0
    9.9708  -15.4097   18.6926 N   0  0  0  0  0  0  0  0  0  0  0  0
    9.5149  -15.8735   21.0423 C   0  0  0  0  0  0  0  0  0  0  0  0
   10.6058  -15.4135   21.4778 O   0  0  0  0  0  0  0  0  0  0  0  0
    6.8159  -12.4193   26.8913 C   0  0  0  0  0  0  0  0  0  0  0  0
    6.9957  -13.0172   25.1829 S   0  0  0  0  0  0  0  0  0  0  0  0
    6.9245  -14.8560   25.1947 C   0  0  0  0  0  0  0  0  0  0  0  0
    7.0928  -15.2880   23.7810 C   0  0  0  0  0  0  0  0  0  0  0  0
    8.5184  -15.3503   23.2876 C   0  0  2  0  0  0  0  0  0  0  0  0
    8.4094  -15.8846   21.9052 N   0  0  0  0  0  0  0  0  0  0  0  0
    9.2763  -16.3104   24.1133 C   0  0  0  0  0  0  0  0  0  0  0  0
    9.0492  -17.5465   23.9523 O   0  0  0  0  0  0  0  0  0  0  0  0
   10.2412  -15.9441   25.0674 N   0  0  0  0  0  0  0  0  0  0  0  0
   11.0094  -16.9760   25.7292 C   0  0  1  0  0  0  0  0  0  0  0  0
   12.1086  -16.2478   26.5039 C   0  0  0  0  0  0  0  0  0  0  0  0
   11.5397  -15.4114   27.5755 C   0  0  0  0  0  0  0  0  0  0  0  0
   11.0207  -14.1475   27.3184 C   0  0  0  0  0  0  0  0  0  0  0  0
   10.4711  -13.3583   28.3098 C   0  0  0  0  0  0  0  0  0  0  0  0
   10.4398  -13.8517   29.6049 C   0  0  0  0  0  0  0  0  0  0  0  0
   10.9411  -15.0908   29.8950 C   0  0  0  0  0  0  0  0  0  0  0  0
   11.4821  -15.8489   28.8754 C   0  0  0  0  0  0  0  0  0  0  0  0
   10.1450  -17.7509   26.6335 C   0  0  0  0  0  0  0  0  0  0  0  0
    8.9346  -17.4773   26.8179 O   0  0  0  0  0  0  0  0  0  0  0  0
   10.6520  -18.8565   27.3430 O   0  0  0  0  0  0  0  0  0  0  0  0
  1  2  1  0
  2  3  1  0
  3  5  1  0
  3  4  1  6
  5  6  2  0
  7  8  1  0
  8  9  1  0
  9 10  1  0
 11 10  1  1
 11 13  1  0
 12 11  1  0
 12  5  1  0
 13 14  2  0
 15 13  1  0
 15 16  1  0
 16 24  1  0
 16 17  1  1
 18 17  1  0
 18 19  2  0
 20 19  1  0
 21 20  2  0
 22 23  2  0
 22 21  1  0
 23 18  1  0
 24 25  2  0
 24 26  1  0
M  END
$$$$
