SMF.pdb
     RDKit          3D

 26 26  0  0  1  0  0  0  0  0999 V2000
    9.1639  -17.3544   18.5387 O   0  0  0  0  0  0  0  0  0  0  0  0
   10.1182  -18.0289   19.2586 C   0  0  0  0  0  0  0  0  0  0  0  0
    9.8251  -18.1522   20.7191 C   0  0  2  0  0  0  0  0  0  0  0  0
    8.6745  -18.9627   20.9481 N   0  0  0  0  0  0  0  0  0  0  0  0
    9.7525  -16.8109   21.3384 C   0  0  0  0  0  0  0  0  0  0  0  0
   10.8228  -16.1446   21.3786 O   0  0  0  0  0  0  0  0  0  0  0  0
    7.3661  -12.0312   18.7412 C   0  0  0  0  0  0  0  0  0  0  0  0
    8.0239  -12.7285   20.2871 S   0  0  0  0  0  0  0  0  0  0  0  0
    6.8865  -14.0560   20.8621 C   0  0  0  0  0  0  0  0  0  0  0  0
    7.2475  -14.3280   22.2797 C   0  0  0  0  0  0  0  0  0  0  0  0
    8.6331  -14.8860   22.5001 C   0  0  2  0  0  0  0  0  0  0  0  0
    8.5931  -16.2347   21.8773 N   0  0  0  0  0  0  0  0  0  0  0  0
    8.8717  -15.0347   23.9489 C   0  0  0  0  0  0  0  0  0  0  0  0
    8.8203  -13.9958   24.6725 O   0  0  0  0  0  0  0  0  0  0  0  0
    9.1486  -16.2577   24.5836 N   0  0  0  0  0  0  0  0  0  0  0  0
    9.3941  -16.2757   26.0091 C   0  0  1  0  0  0  0  0  0  0  0  0
    8.0439  -15.9954   26.6701 C   0  0  0  0  0  0  0  0  0  0  0  0
    7.7486  -14.5518   26.6859 C   0  0  0  0  0  0  0  0  0  0  0  0
    6.5026  -14.0568   26.3179 C   0  0  0  0  0  0  0  0  0  0  0  0
    6.2066  -12.7078   26.3418 C   0  0  0  0  0  0  0  0  0  0  0  0
    7.1928  -11.8227   26.7485 C   0  0  0  0  0  0  0  0  0  0  0  0
    8.4303  -12.2736   27.1177 C   0  0  0  0  0  0  0  0  0  0  0  0
    8.6865  -13.6301   27.0800 C   0  0  0  0  0  0  0  0  0  0  0  0
    9.9240  -17.5868   26.4162 C   0  0  0  0  0  0  0  0  0  0  0  0
   10.0788  -18.5373   25.6122 O   0  0  0  0  0  0  0  0  0  0  0  0
   10.2886  -17.8327   27.7539 O   0  0  0  0  0  0  0  0  0  0  0  0
  1  2  1  0
  2  3  1  0
  3  5  1  0
  3  4  1  6
  5  6  2  0
  7  8  1  0
  8  9  1  0
  9 10  1  0
 11 10  1  1
 11 13  1  0
 12 11  1  0
 12  5  1  0
 13 14  2  0
 15 13  1  0
 15 16  1  0
 16 24  1  0
 16 17  1  1
 18 17  1  0
 18 19  2  0
 20 19  1  0
 21 20  2  0
 22 23  2  0
 22 21  1  0
 23 18  1  0
 24 25  2  0
 24 26  1  0
M  END
$$$$
