SMF.pdb
     RDKit          3D

 26 26  0  0  1  0  0  0  0  0999 V2000
   11.3054  -18.4728   20.4773 O   0  0  0  0  0  0  0  0  0  0  0  0
   10.1847  -17.9615   19.8721 C   0  0  0  0  0  0  0  0  0  0  0  0
   10.0810  -16.4708   19.9108 C   0  0  2  0  0  0  0  0  0  0  0  0
   11.1811  -15.8593   19.2409 N   0  0  0  0  0  0  0  0  0  0  0  0
    9.8898  -16.0102   21.3034 C   0  0  0  0  0  0  0  0  0  0  0  0
   10.8762  -15.4537   21.8587 O   0  0  0  0  0  0  0  0  0  0  0  0
    6.6561  -12.1664   25.9013 C   0  0  0  0  0  0  0  0  0  0  0  0
    7.4600  -13.7362   25.4563 S   0  0  0  0  0  0  0  0  0  0  0  0
    6.4627  -14.5541   24.1437 C   0  0  0  0  0  0  0  0  0  0  0  0
    7.1688  -15.8215   23.8137 C   0  0  0  0  0  0  0  0  0  0  0  0
    8.6264  -15.6752   23.4481 C   0  0  2  0  0  0  0  0  0  0  0  0
    8.7048  -16.1466   22.0409 N   0  0  0  0  0  0  0  0  0  0  0  0
    9.4327  -16.5720   24.2988 C   0  0  0  0  0  0  0  0  0  0  0  0
    9.3517  -17.8202   24.0961 O   0  0  0  0  0  0  0  0  0  0  0  0
   10.2920  -16.1322   25.3202 N   0  0  0  0  0  0  0  0  0  0  0  0
   11.1058  -17.0983   26.0254 C   0  0  1  0  0  0  0  0  0  0  0  0
   12.1273  -16.2843   26.8208 C   0  0  0  0  0  0  0  0  0  0  0  0
   11.4621  -15.4042   27.7977 C   0  0  0  0  0  0  0  0  0  0  0  0
   11.0177  -14.1330   27.4521 C   0  0  0  0  0  0  0  0  0  0  0  0
   10.3796  -13.3027   28.3528 C   0  0  0  0  0  0  0  0  0  0  0  0
   10.1792  -13.7610   29.6456 C   0  0  0  0  0  0  0  0  0  0  0  0
   10.6030  -15.0061   30.0213 C   0  0  0  0  0  0  0  0  0  0  0  0
   11.2368  -15.8058   29.0909 C   0  0  0  0  0  0  0  0  0  0  0  0
   10.2662  -17.9150   26.9163 C   0  0  0  0  0  0  0  0  0  0  0  0
   10.7204  -18.8675   27.5947 O   0  0  0  0  0  0  0  0  0  0  0  0
    8.8888  -17.6537   27.0477 O   0  0  0  0  0  0  0  0  0  0  0  0
  1  2  1  0
  2  3  1  0
  3  5  1  0
  3  4  1  1
  5  6  2  0
  7  8  1  0
  8  9  1  0
  9 10  1  0
 11 10  1  1
 11 13  1  0
 12 11  1  0
 12  5  1  0
 13 14  2  0
 15 13  1  0
 15 16  1  0
 16 24  1  0
 16 17  1  1
 18 17  1  0
 18 19  2  0
 20 19  1  0
 21 20  2  0
 22 23  2  0
 22 21  1  0
 23 18  1  0
 24 25  2  0
 24 26  1  0
M  END
$$$$
