WKE.pdb
     RDKit          3D

 33 34  0  0  1  0  0  0  0  0999 V2000
   13.0644  -23.4178   -5.3249 N   0  0  0  0  0  0  0  0  0  0  0  0
   13.7742  -23.4257   -4.0858 C   0  0  1  0  0  0  0  0  0  0  0  0
   15.2290  -23.0000   -4.2347 C   0  0  0  0  0  0  0  0  0  0  0  0
   15.6303  -23.0431   -5.6787 C   0  0  0  0  0  0  0  0  0  0  0  0
   16.2525  -24.0762   -6.3209 C   0  0  0  0  0  0  0  0  0  0  0  0
   16.4366  -23.7069   -7.6166 N   0  0  0  0  0  0  0  0  0  0  0  0
   15.9488  -22.4743   -7.8059 C   0  0  0  0  0  0  0  0  0  0  0  0
   15.8722  -21.6350   -8.8916 C   0  0  0  0  0  0  0  0  0  0  0  0
   15.2958  -20.3727   -8.7948 C   0  0  0  0  0  0  0  0  0  0  0  0
   14.7947  -19.9626   -7.5856 C   0  0  0  0  0  0  0  0  0  0  0  0
   14.8699  -20.8106   -6.4810 C   0  0  0  0  0  0  0  0  0  0  0  0
   15.4451  -22.0522   -6.6073 C   0  0  0  0  0  0  0  0  0  0  0  0
   13.0982  -22.5284   -3.1255 C   0  0  0  0  0  0  0  0  0  0  0  0
   12.6700  -21.3915   -3.4842 O   0  0  0  0  0  0  0  0  0  0  0  0
   12.8944  -22.8836   -1.7684 N   0  0  0  0  0  0  0  0  0  0  0  0
   12.2003  -21.9665   -0.8637 C   0  0  1  0  0  0  0  0  0  0  0  0
   10.8232  -22.5033   -0.5836 C   0  0  0  0  0  0  0  0  0  0  0  0
   10.0252  -21.5170    0.2294 C   0  0  0  0  0  0  0  0  0  0  0  0
    8.6298  -22.0246    0.5006 C   0  0  0  0  0  0  0  0  0  0  0  0
    7.7983  -21.0664    1.3106 C   0  0  0  0  0  0  0  0  0  0  0  0
    6.4898  -21.7122    1.4949 N   0  0  0  0  0  0  0  0  0  0  0  0
   12.9479  -21.8618    0.4183 C   0  0  0  0  0  0  0  0  0  0  0  0
   13.7159  -22.8083    0.7577 O   0  0  0  0  0  0  0  0  0  0  0  0
   12.8621  -20.7664    1.2969 N   0  0  0  0  0  0  0  0  0  0  0  0
   13.6091  -20.6920    2.5659 C   0  0  1  0  0  0  0  0  0  0  0  0
   14.0387  -19.2673    2.7613 C   0  0  0  0  0  0  0  0  0  0  0  0
   14.6935  -19.0406    4.0884 C   0  0  0  0  0  0  0  0  0  0  0  0
   16.1657  -19.0819    4.0087 C   0  0  0  0  0  0  0  0  0  0  0  0
   16.8050  -19.0152    2.9395 O   0  0  0  0  0  0  0  0  0  0  0  0
   12.7243  -21.1906    3.6466 C   0  0  0  0  0  0  0  0  0  0  0  0
   13.2173  -22.1141    4.5449 O   0  0  0  0  0  0  0  0  0  0  0  0
   16.9081  -19.2018    5.1760 O   0  0  0  0  0  0  0  0  0  0  0  0
   11.5451  -20.8183    3.7917 O   0  0  0  0  0  0  0  0  0  0  0  0
  2  1  1  6
  3  2  1  0
  4  5  2  0
  4  3  1  0
  6  5  1  0
  7 12  2  0
  7  6  1  0
  8  7  1  0
  9 10  1  0
  9  8  2  0
 10 11  2  0
 11 12  1  0
 12  4  1  0
 13 14  2  0
 13  2  1  0
 15 13  1  0
 16 15  1  0
 16 17  1  1
 18 17  1  0
 19 18  1  0
 20 19  1  0
 20 21  1  0
 22 16  1  0
 23 22  2  0
 24 22  1  0
 25 30  1  0
 25 24  1  0
 25 26  1  1
 27 26  1  0
 28 27  1  0
 29 28  2  0
 30 31  1  0
 32 28  1  0
 33 30  2  0
M  END
$$$$
