WKE.pdb
     RDKit          3D

 33 34  0  0  1  0  0  0  0  0999 V2000
   23.4019  -20.0406  -16.5516 N   0  0  0  0  0  0  0  0  0  0  0  0
   22.1301  -19.5333  -16.1463 C   0  0  1  0  0  0  0  0  0  0  0  0
   21.2130  -19.2273  -17.3232 C   0  0  0  0  0  0  0  0  0  0  0  0
   21.7137  -18.0234  -18.0635 C   0  0  0  0  0  0  0  0  0  0  0  0
   22.9382  -17.8801  -18.6524 C   0  0  0  0  0  0  0  0  0  0  0  0
   22.9862  -16.6412  -19.2108 N   0  0  0  0  0  0  0  0  0  0  0  0
   21.8293  -16.0039  -18.9899 C   0  0  0  0  0  0  0  0  0  0  0  0
   21.3468  -14.7604  -19.3216 C   0  0  0  0  0  0  0  0  0  0  0  0
   20.0699  -14.3536  -18.9484 C   0  0  0  0  0  0  0  0  0  0  0  0
   19.2801  -15.2175  -18.2335 C   0  0  0  0  0  0  0  0  0  0  0  0
   19.7652  -16.4804  -17.8947 C   0  0  0  0  0  0  0  0  0  0  0  0
   21.0309  -16.8544  -18.2773 C   0  0  0  0  0  0  0  0  0  0  0  0
   21.4714  -20.5109  -15.2548 C   0  0  0  0  0  0  0  0  0  0  0  0
   21.6376  -21.7564  -15.4151 O   0  0  0  0  0  0  0  0  0  0  0  0
   20.6281  -20.1161  -14.1860 N   0  0  0  0  0  0  0  0  0  0  0  0
   20.0506  -21.1219  -13.2938 C   0  0  1  0  0  0  0  0  0  0  0  0
   20.2568  -20.6884  -11.8681 C   0  0  0  0  0  0  0  0  0  0  0  0
   19.7851  -21.7568  -10.9158 C   0  0  0  0  0  0  0  0  0  0  0  0
   19.9020  -21.3081   -9.4794 C   0  0  0  0  0  0  0  0  0  0  0  0
   19.6397  -22.4126   -8.4910 C   0  0  0  0  0  0  0  0  0  0  0  0
   19.9690  -21.8652   -7.1662 N   0  0  0  0  0  0  0  0  0  0  0  0
   18.5912  -21.2476  -13.5541 C   0  0  0  0  0  0  0  0  0  0  0  0
   17.8803  -20.2011  -13.5704 O   0  0  0  0  0  0  0  0  0  0  0  0
   17.9318  -22.4679  -13.7887 N   0  0  0  0  0  0  0  0  0  0  0  0
   16.4687  -22.5769  -13.9360 C   0  0  1  0  0  0  0  0  0  0  0  0
   16.1506  -23.9958  -14.3075 C   0  0  0  0  0  0  0  0  0  0  0  0
   16.4309  -24.9584  -13.1957 C   0  0  0  0  0  0  0  0  0  0  0  0
   16.1404  -26.3556  -13.5686 C   0  0  0  0  0  0  0  0  0  0  0  0
   16.9821  -27.1304  -14.0664 O   0  0  0  0  0  0  0  0  0  0  0  0
   15.8482  -22.1527  -12.6575 C   0  0  0  0  0  0  0  0  0  0  0  0
   14.5890  -21.5899  -12.6772 O   0  0  0  0  0  0  0  0  0  0  0  0
   14.8644  -26.8639  -13.3650 O   0  0  0  0  0  0  0  0  0  0  0  0
   16.4066  -22.2772  -11.5516 O   0  0  0  0  0  0  0  0  0  0  0  0
  2  1  1  6
  3  2  1  0
  4  5  2  0
  4  3  1  0
  6  5  1  0
  7 12  2  0
  7  6  1  0
  8  7  1  0
  9 10  1  0
  9  8  2  0
 10 11  2  0
 11 12  1  0
 12  4  1  0
 13 14  2  0
 13  2  1  0
 15 13  1  0
 16 15  1  0
 16 17  1  1
 18 17  1  0
 19 18  1  0
 20 19  1  0
 20 21  1  0
 22 16  1  0
 23 22  2  0
 24 22  1  0
 25 30  1  0
 25 24  1  0
 25 26  1  1
 27 26  1  0
 28 27  1  0
 29 28  2  0
 30 31  1  0
 32 28  1  0
 33 30  2  0
M  END
$$$$
