WKE.pdb
     RDKit          3D

 33 34  0  0  1  0  0  0  0  0999 V2000
   27.9113  -19.5271   -9.8053 N   0  0  0  0  0  0  0  0  0  0  0  0
   27.0675  -20.6753   -9.7109 C   0  0  1  0  0  0  0  0  0  0  0  0
   26.2667  -20.7159   -8.4159 C   0  0  0  0  0  0  0  0  0  0  0  0
   26.9946  -19.9679   -7.3395 C   0  0  0  0  0  0  0  0  0  0  0  0
   27.1232  -18.6118   -7.2340 C   0  0  0  0  0  0  0  0  0  0  0  0
   27.8568  -18.3514   -6.1190 N   0  0  0  0  0  0  0  0  0  0  0  0
   28.1918  -19.5027   -5.5228 C   0  0  0  0  0  0  0  0  0  0  0  0
   28.9093  -19.8190   -4.3940 C   0  0  0  0  0  0  0  0  0  0  0  0
   29.1040  -21.1398   -4.0034 C   0  0  0  0  0  0  0  0  0  0  0  0
   28.5654  -22.1442   -4.7665 C   0  0  0  0  0  0  0  0  0  0  0  0
   27.8364  -21.8285   -5.9127 C   0  0  0  0  0  0  0  0  0  0  0  0
   27.6607  -20.5142   -6.2734 C   0  0  0  0  0  0  0  0  0  0  0  0
   26.1391  -20.6999  -10.8606 C   0  0  0  0  0  0  0  0  0  0  0  0
   25.3938  -19.7089  -11.1195 O   0  0  0  0  0  0  0  0  0  0  0  0
   26.0311  -21.8177  -11.7256 N   0  0  0  0  0  0  0  0  0  0  0  0
   25.2280  -21.7294  -12.9457 C   0  0  1  0  0  0  0  0  0  0  0  0
   25.6363  -22.8339  -13.8819 C   0  0  0  0  0  0  0  0  0  0  0  0
   25.0380  -22.6189  -15.2480 C   0  0  0  0  0  0  0  0  0  0  0  0
   25.9595  -21.8183  -16.1357 C   0  0  0  0  0  0  0  0  0  0  0  0
   25.4337  -21.6494  -17.5359 C   0  0  0  0  0  0  0  0  0  0  0  0
   26.4724  -20.9206  -18.2798 N   0  0  0  0  0  0  0  0  0  0  0  0
   23.7867  -21.8869  -12.6123 C   0  0  0  0  0  0  0  0  0  0  0  0
   23.3513  -23.0349  -12.3068 O   0  0  0  0  0  0  0  0  0  0  0  0
   22.8553  -20.8326  -12.6112 N   0  0  0  0  0  0  0  0  0  0  0  0
   21.4052  -21.0397  -12.4422 C   0  0  1  0  0  0  0  0  0  0  0  0
   20.7347  -19.7025  -12.5636 C   0  0  0  0  0  0  0  0  0  0  0  0
   19.4977  -19.6011  -11.7265 C   0  0  0  0  0  0  0  0  0  0  0  0
   18.5021  -18.6736  -12.2959 C   0  0  0  0  0  0  0  0  0  0  0  0
   18.6825  -18.0186  -13.3422 O   0  0  0  0  0  0  0  0  0  0  0  0
   20.9604  -22.0136  -13.4685 C   0  0  0  0  0  0  0  0  0  0  0  0
   20.0634  -22.9995  -13.1135 O   0  0  0  0  0  0  0  0  0  0  0  0
   17.2850  -18.5002  -11.6503 O   0  0  0  0  0  0  0  0  0  0  0  0
   21.3558  -21.9920  -14.6489 O   0  0  0  0  0  0  0  0  0  0  0  0
  2  1  1  1
  3  2  1  0
  4  5  2  0
  4  3  1  0
  6  5  1  0
  7 12  2  0
  7  6  1  0
  8  7  1  0
  9 10  1  0
  9  8  2  0
 10 11  2  0
 11 12  1  0
 12  4  1  0
 13 14  2  0
 13  2  1  0
 15 13  1  0
 16 15  1  0
 16 17  1  6
 18 17  1  0
 19 18  1  0
 20 19  1  0
 20 21  1  0
 22 16  1  0
 23 22  2  0
 24 22  1  0
 25 30  1  0
 25 24  1  0
 25 26  1  6
 27 26  1  0
 28 27  1  0
 29 28  2  0
 30 31  1  0
 32 28  1  0
 33 30  2  0
M  END
$$$$
