WKE.pdb
     RDKit          3D

 33 34  0  0  1  0  0  0  0  0999 V2000
   21.7708  -12.8876  -17.8006 N   0  0  0  0  0  0  0  0  0  0  0  0
   22.5360  -11.9064  -17.0999 C   0  0  1  0  0  0  0  0  0  0  0  0
   23.8320  -11.5461  -17.8144 C   0  0  0  0  0  0  0  0  0  0  0  0
   24.8410  -12.6393  -17.6279 C   0  0  0  0  0  0  0  0  0  0  0  0
   24.8765  -13.8362  -18.2858 C   0  0  0  0  0  0  0  0  0  0  0  0
   25.9470  -14.5331  -17.8194 N   0  0  0  0  0  0  0  0  0  0  0  0
   26.5833  -13.8095  -16.8895 C   0  0  0  0  0  0  0  0  0  0  0  0
   27.6958  -14.0227  -16.1110 C   0  0  0  0  0  0  0  0  0  0  0  0
   28.1406  -13.0677  -15.2026 C   0  0  0  0  0  0  0  0  0  0  0  0
   27.4488  -11.8891  -15.0861 C   0  0  0  0  0  0  0  0  0  0  0  0
   26.3194  -11.6679  -15.8738 C   0  0  0  0  0  0  0  0  0  0  0  0
   25.9039  -12.6301  -16.7626 C   0  0  0  0  0  0  0  0  0  0  0  0
   21.7228  -10.6858  -16.9176 C   0  0  0  0  0  0  0  0  0  0  0  0
   21.3501   -9.9949  -17.9117 O   0  0  0  0  0  0  0  0  0  0  0  0
   21.3203  -10.2255  -15.6387 N   0  0  0  0  0  0  0  0  0  0  0  0
   20.4826   -9.0320  -15.5160 C   0  0  1  0  0  0  0  0  0  0  0  0
   19.3692   -9.3128  -14.5441 C   0  0  0  0  0  0  0  0  0  0  0  0
   18.0850   -9.6006  -15.2780 C   0  0  0  0  0  0  0  0  0  0  0  0
   17.7699  -11.0766  -15.2834 C   0  0  0  0  0  0  0  0  0  0  0  0
   16.5356  -11.4156  -16.0753 C   0  0  0  0  0  0  0  0  0  0  0  0
   16.4702  -12.8841  -16.1260 N   0  0  0  0  0  0  0  0  0  0  0  0
   21.2959   -7.8964  -15.0039 C   0  0  0  0  0  0  0  0  0  0  0  0
   22.2184   -8.1314  -14.1706 O   0  0  0  0  0  0  0  0  0  0  0  0
   21.1110   -6.5553  -15.3864 N   0  0  0  0  0  0  0  0  0  0  0  0
   21.9541   -5.4527  -14.8887 C   0  0  1  0  0  0  0  0  0  0  0  0
   21.5114   -4.1929  -15.5737 C   0  0  0  0  0  0  0  0  0  0  0  0
   22.2092   -2.9768  -15.0487 C   0  0  0  0  0  0  0  0  0  0  0  0
   21.6889   -1.7272  -15.6347 C   0  0  0  0  0  0  0  0  0  0  0  0
   20.8232   -1.6893  -16.5322 O   0  0  0  0  0  0  0  0  0  0  0  0
   21.8115   -5.3988  -13.4135 C   0  0  0  0  0  0  0  0  0  0  0  0
   22.8144   -4.8211  -12.6632 O   0  0  0  0  0  0  0  0  0  0  0  0
   22.1735   -0.5080  -15.1798 O   0  0  0  0  0  0  0  0  0  0  0  0
   20.8242   -5.8516  -12.8047 O   0  0  0  0  0  0  0  0  0  0  0  0
  2  1  1  6
  3  2  1  0
  4  5  2  0
  4  3  1  0
  6  5  1  0
  7 12  2  0
  7  6  1  0
  8  7  1  0
  9 10  1  0
  9  8  2  0
 10 11  2  0
 11 12  1  0
 12  4  1  0
 13 14  2  0
 13  2  1  0
 15 13  1  0
 16 15  1  0
 16 17  1  1
 18 17  1  0
 19 18  1  0
 20 19  1  0
 20 21  1  0
 22 16  1  0
 23 22  2  0
 24 22  1  0
 25 30  1  0
 25 24  1  0
 25 26  1  6
 27 26  1  0
 28 27  1  0
 29 28  2  0
 30 31  1  0
 32 28  1  0
 33 30  2  0
M  END
$$$$
