WKE.pdb
     RDKit          3D

 33 34  0  0  1  0  0  0  0  0999 V2000
   28.2372  -20.2292   -9.6666 N   0  0  0  0  0  0  0  0  0  0  0  0
   26.9977  -20.8878   -9.4040 C   0  0  1  0  0  0  0  0  0  0  0  0
   26.2113  -20.2389   -8.2724 C   0  0  0  0  0  0  0  0  0  0  0  0
   27.1517  -19.7224   -7.2252 C   0  0  0  0  0  0  0  0  0  0  0  0
   27.6326  -18.4479   -7.1192 C   0  0  0  0  0  0  0  0  0  0  0  0
   28.4534  -18.4042   -6.0360 N   0  0  0  0  0  0  0  0  0  0  0  0
   28.5016  -19.6122   -5.4600 C   0  0  0  0  0  0  0  0  0  0  0  0
   29.1576  -20.1214   -4.3649 C   0  0  0  0  0  0  0  0  0  0  0  0
   29.0181  -21.4535   -3.9891 C   0  0  0  0  0  0  0  0  0  0  0  0
   28.2064  -22.2717   -4.7327 C   0  0  0  0  0  0  0  0  0  0  0  0
   27.5385  -21.7597   -5.8448 C   0  0  0  0  0  0  0  0  0  0  0  0
   27.6958  -20.4394   -6.1915 C   0  0  0  0  0  0  0  0  0  0  0  0
   26.1737  -20.8939  -10.6309 C   0  0  0  0  0  0  0  0  0  0  0  0
   26.0481  -19.8508  -11.3384 O   0  0  0  0  0  0  0  0  0  0  0  0
   25.4868  -22.0503  -11.0786 N   0  0  0  0  0  0  0  0  0  0  0  0
   24.8067  -22.0471  -12.3742 C   0  0  1  0  0  0  0  0  0  0  0  0
   24.4690  -23.4631  -12.7537 C   0  0  0  0  0  0  0  0  0  0  0  0
   23.8161  -23.5066  -14.1111 C   0  0  0  0  0  0  0  0  0  0  0  0
   24.8307  -23.7308  -15.2059 C   0  0  0  0  0  0  0  0  0  0  0  0
   24.2213  -23.7543  -16.5820 C   0  0  0  0  0  0  0  0  0  0  0  0
   25.3452  -23.8295  -17.5279 N   0  0  0  0  0  0  0  0  0  0  0  0
   23.5483  -21.2590  -12.2804 C   0  0  0  0  0  0  0  0  0  0  0  0
   22.8252  -21.3813  -11.2494 O   0  0  0  0  0  0  0  0  0  0  0  0
   23.0956  -20.3705  -13.2727 N   0  0  0  0  0  0  0  0  0  0  0  0
   21.7683  -19.7295  -13.2344 C   0  0  1  0  0  0  0  0  0  0  0  0
   21.6736  -18.8024  -14.4108 C   0  0  0  0  0  0  0  0  0  0  0  0
   20.3593  -18.0886  -14.4765 C   0  0  0  0  0  0  0  0  0  0  0  0
   20.2442  -17.2205  -15.6635 C   0  0  0  0  0  0  0  0  0  0  0  0
   21.1238  -17.1276  -16.5433 O   0  0  0  0  0  0  0  0  0  0  0  0
   20.7431  -20.8011  -13.2489 C   0  0  0  0  0  0  0  0  0  0  0  0
   19.6028  -20.6489  -12.4878 O   0  0  0  0  0  0  0  0  0  0  0  0
   19.1013  -16.4511  -15.8366 O   0  0  0  0  0  0  0  0  0  0  0  0
   20.8543  -21.8451  -13.9181 O   0  0  0  0  0  0  0  0  0  0  0  0
  2  1  1  6
  3  2  1  0
  4  5  2  0
  4  3  1  0
  6  5  1  0
  7 12  2  0
  7  6  1  0
  8  7  1  0
  9 10  1  0
  9  8  2  0
 10 11  2  0
 11 12  1  0
 12  4  1  0
 13 14  2  0
 13  2  1  0
 15 13  1  0
 16 15  1  0
 16 17  1  1
 18 17  1  0
 19 18  1  0
 20 19  1  0
 20 21  1  0
 22 16  1  0
 23 22  2  0
 24 22  1  0
 25 30  1  0
 25 24  1  0
 25 26  1  6
 27 26  1  0
 28 27  1  0
 29 28  2  0
 30 31  1  0
 32 28  1  0
 33 30  2  0
M  END
$$$$
