WKE.pdb
     RDKit          3D

 33 34  0  0  1  0  0  0  0  0999 V2000
   25.8813  -18.5914   -9.5716 N   0  0  0  0  0  0  0  0  0  0  0  0
   26.5872  -19.8204   -9.7454 C   0  0  1  0  0  0  0  0  0  0  0  0
   26.6884  -20.6313   -8.4600 C   0  0  0  0  0  0  0  0  0  0  0  0
   27.2329  -19.7756   -7.3558 C   0  0  0  0  0  0  0  0  0  0  0  0
   26.8378  -18.5069   -7.0378 C   0  0  0  0  0  0  0  0  0  0  0  0
   27.5840  -18.0946   -5.9784 N   0  0  0  0  0  0  0  0  0  0  0  0
   28.4344  -19.0660   -5.6228 C   0  0  0  0  0  0  0  0  0  0  0  0
   29.3931  -19.1839   -4.6451 C   0  0  0  0  0  0  0  0  0  0  0  0
   30.1489  -20.3433   -4.5049 C   0  0  0  0  0  0  0  0  0  0  0  0
   29.9273  -21.3884   -5.3651 C   0  0  0  0  0  0  0  0  0  0  0  0
   28.9555  -21.2738   -6.3588 C   0  0  0  0  0  0  0  0  0  0  0  0
   28.2244  -20.1158   -6.4728 C   0  0  0  0  0  0  0  0  0  0  0  0
   25.9163  -20.6311  -10.7831 C   0  0  0  0  0  0  0  0  0  0  0  0
   24.6594  -20.7881  -10.7779 O   0  0  0  0  0  0  0  0  0  0  0  0
   26.6309  -21.2702  -11.8274 N   0  0  0  0  0  0  0  0  0  0  0  0
   26.0713  -21.3210  -13.1785 C   0  0  1  0  0  0  0  0  0  0  0  0
   27.0696  -21.9696  -14.0981 C   0  0  0  0  0  0  0  0  0  0  0  0
   26.5188  -22.0623  -15.4976 C   0  0  0  0  0  0  0  0  0  0  0  0
   26.8103  -20.8117  -16.2907 C   0  0  0  0  0  0  0  0  0  0  0  0
   26.2188  -20.8370  -17.6746 C   0  0  0  0  0  0  0  0  0  0  0  0
   26.5110  -19.5244  -18.2705 N   0  0  0  0  0  0  0  0  0  0  0  0
   24.8215  -22.1281  -13.1759 C   0  0  0  0  0  0  0  0  0  0  0  0
   24.8353  -23.2755  -12.6430 O   0  0  0  0  0  0  0  0  0  0  0  0
   23.6024  -21.7001  -13.7325 N   0  0  0  0  0  0  0  0  0  0  0  0
   22.3604  -22.4909  -13.6546 C   0  0  1  0  0  0  0  0  0  0  0  0
   21.2226  -21.5361  -13.4393 C   0  0  0  0  0  0  0  0  0  0  0  0
   19.8932  -22.2236  -13.4047 C   0  0  0  0  0  0  0  0  0  0  0  0
   18.7665  -21.2754  -13.3207 C   0  0  0  0  0  0  0  0  0  0  0  0
   18.8458  -20.0729  -13.6434 O   0  0  0  0  0  0  0  0  0  0  0  0
   22.2386  -23.2745  -14.9078 C   0  0  0  0  0  0  0  0  0  0  0  0
   22.4489  -22.6439  -16.1165 O   0  0  0  0  0  0  0  0  0  0  0  0
   17.5347  -21.7202  -12.8591 O   0  0  0  0  0  0  0  0  0  0  0  0
   21.9533  -24.4862  -14.9319 O   0  0  0  0  0  0  0  0  0  0  0  0
  2  1  1  1
  3  2  1  0
  4  5  2  0
  4  3  1  0
  6  5  1  0
  7 12  2  0
  7  6  1  0
  8  7  1  0
  9 10  1  0
  9  8  2  0
 10 11  2  0
 11 12  1  0
 12  4  1  0
 13 14  2  0
 13  2  1  0
 15 13  1  0
 16 15  1  0
 16 17  1  6
 18 17  1  0
 19 18  1  0
 20 19  1  0
 20 21  1  0
 22 16  1  0
 23 22  2  0
 24 22  1  0
 25 30  1  0
 25 24  1  0
 25 26  1  6
 27 26  1  0
 28 27  1  0
 29 28  2  0
 30 31  1  0
 32 28  1  0
 33 30  2  0
M  END
$$$$
