WKE.pdb
     RDKit          3D

 33 34  0  0  1  0  0  0  0  0999 V2000
   28.2257  -20.0143   -9.9114 N   0  0  0  0  0  0  0  0  0  0  0  0
   27.0489  -20.7488   -9.5728 C   0  0  1  0  0  0  0  0  0  0  0  0
   26.3120  -20.1654   -8.3742 C   0  0  0  0  0  0  0  0  0  0  0  0
   27.2968  -19.7035   -7.3424 C   0  0  0  0  0  0  0  0  0  0  0  0
   28.0225  -18.5462   -7.3692 C   0  0  0  0  0  0  0  0  0  0  0  0
   28.7926  -18.5148   -6.2490 N   0  0  0  0  0  0  0  0  0  0  0  0
   28.5716  -19.6168   -5.5210 C   0  0  0  0  0  0  0  0  0  0  0  0
   29.0674  -20.0879   -4.3288 C   0  0  0  0  0  0  0  0  0  0  0  0
   28.6453  -21.3012   -3.7953 C   0  0  0  0  0  0  0  0  0  0  0  0
   27.7133  -22.0391   -4.4796 C   0  0  0  0  0  0  0  0  0  0  0  0
   27.2071  -21.5653   -5.6896 C   0  0  0  0  0  0  0  0  0  0  0  0
   27.6431  -20.3628   -6.1918 C   0  0  0  0  0  0  0  0  0  0  0  0
   26.1385  -20.7839  -10.7365 C   0  0  0  0  0  0  0  0  0  0  0  0
   25.7875  -19.7177  -11.3235 O   0  0  0  0  0  0  0  0  0  0  0  0
   25.6135  -21.9949  -11.2538 N   0  0  0  0  0  0  0  0  0  0  0  0
   24.8413  -21.9909  -12.4967 C   0  0  1  0  0  0  0  0  0  0  0  0
   24.7777  -23.3929  -13.0384 C   0  0  0  0  0  0  0  0  0  0  0  0
   24.0427  -23.4200  -14.3535 C   0  0  0  0  0  0  0  0  0  0  0  0
   24.0383  -24.8038  -14.9563 C   0  0  0  0  0  0  0  0  0  0  0  0
   24.0940  -24.7945  -16.4604 C   0  0  0  0  0  0  0  0  0  0  0  0
   23.0551  -23.8527  -16.9043 N   0  0  0  0  0  0  0  0  0  0  0  0
   23.4580  -21.5135  -12.2284 C   0  0  0  0  0  0  0  0  0  0  0  0
   22.8545  -21.9338  -11.1990 O   0  0  0  0  0  0  0  0  0  0  0  0
   22.7591  -20.6113  -13.0512 N   0  0  0  0  0  0  0  0  0  0  0  0
   21.4119  -20.1060  -12.7290 C   0  0  1  0  0  0  0  0  0  0  0  0
   21.1433  -18.9232  -13.6129 C   0  0  0  0  0  0  0  0  0  0  0  0
   19.7527  -18.3913  -13.4555 C   0  0  0  0  0  0  0  0  0  0  0  0
   19.4460  -17.3134  -14.4145 C   0  0  0  0  0  0  0  0  0  0  0  0
   20.2690  -16.8592  -15.2347 O   0  0  0  0  0  0  0  0  0  0  0  0
   20.4485  -21.2160  -12.9268 C   0  0  0  0  0  0  0  0  0  0  0  0
   19.3901  -21.3495  -12.0523 O   0  0  0  0  0  0  0  0  0  0  0  0
   18.1754  -16.7534  -14.4266 O   0  0  0  0  0  0  0  0  0  0  0  0
   20.5415  -22.0462  -13.8500 O   0  0  0  0  0  0  0  0  0  0  0  0
  2  1  1  6
  3  2  1  0
  4  5  2  0
  4  3  1  0
  6  5  1  0
  7 12  2  0
  7  6  1  0
  8  7  1  0
  9 10  1  0
  9  8  2  0
 10 11  2  0
 11 12  1  0
 12  4  1  0
 13 14  2  0
 13  2  1  0
 15 13  1  0
 16 15  1  0
 16 17  1  1
 18 17  1  0
 19 18  1  0
 20 19  1  0
 20 21  1  0
 22 16  1  0
 23 22  2  0
 24 22  1  0
 25 30  1  0
 25 24  1  0
 25 26  1  6
 27 26  1  0
 28 27  1  0
 29 28  2  0
 30 31  1  0
 32 28  1  0
 33 30  2  0
M  END
$$$$
