WFY.pdb
     RDKit          3D

 38 41  0  0  1  0  0  0  0  0999 V2000
    5.4769  -19.7334   23.9989 N   0  0  0  0  0  0  0  0  0  0  0  0
    6.5376  -18.8288   24.3424 C   0  0  1  0  0  0  0  0  0  0  0  0
    7.7703  -19.5274   24.8589 C   0  0  0  0  0  0  0  0  0  0  0  0
    7.5528  -19.8607   26.2891 C   0  0  0  0  0  0  0  0  0  0  0  0
    6.4580  -20.5759   26.7879 C   0  0  0  0  0  0  0  0  0  0  0  0
    6.5747  -20.7335   28.1178 N   0  0  0  0  0  0  0  0  0  0  0  0
    7.7151  -20.1431   28.5157 C   0  0  0  0  0  0  0  0  0  0  0  0
    8.2800  -20.0221   29.7663 C   0  0  0  0  0  0  0  0  0  0  0  0
    9.4732  -19.3434   29.8707 C   0  0  0  0  0  0  0  0  0  0  0  0
   10.1139  -18.7889   28.7889 C   0  0  0  0  0  0  0  0  0  0  0  0
    9.5294  -18.9204   27.5311 C   0  0  0  0  0  0  0  0  0  0  0  0
    8.3350  -19.5953   27.3924 C   0  0  0  0  0  0  0  0  0  0  0  0
    6.8497  -17.8976   23.2256 C   0  0  0  0  0  0  0  0  0  0  0  0
    6.9114  -18.3329   22.0615 O   0  0  0  0  0  0  0  0  0  0  0  0
    7.0664  -16.5303   23.5439 N   0  0  0  0  0  0  0  0  0  0  0  0
    7.5461  -15.6572   22.4981 C   0  0  1  0  0  0  0  0  0  0  0  0
    6.8591  -14.2846   22.6342 C   0  0  0  0  0  0  0  0  0  0  0  0
    6.9378  -13.8016   24.0291 C   0  0  0  0  0  0  0  0  0  0  0  0
    7.7715  -12.7654   24.3834 C   0  0  0  0  0  0  0  0  0  0  0  0
    7.8392  -12.3154   25.6981 C   0  0  0  0  0  0  0  0  0  0  0  0
    7.0769  -12.8879   26.6921 C   0  0  0  0  0  0  0  0  0  0  0  0
    6.2378  -13.9291   26.3412 C   0  0  0  0  0  0  0  0  0  0  0  0
    6.1751  -14.3757   25.0191 C   0  0  0  0  0  0  0  0  0  0  0  0
    8.9815  -15.3818   22.7276 C   0  0  0  0  0  0  0  0  0  0  0  0
    9.5670  -14.6038   21.9423 O   0  0  0  0  0  0  0  0  0  0  0  0
    9.4590  -16.3631   30.1617 O   0  0  0  0  0  0  0  0  0  0  0  0
    9.8734  -15.9260   28.9033 C   0  0  0  0  0  0  0  0  0  0  0  0
    8.9756  -15.6719   27.8889 C   0  0  0  0  0  0  0  0  0  0  0  0
    9.4638  -15.2431   26.6743 C   0  0  0  0  0  0  0  0  0  0  0  0
   10.8197  -15.0679   26.4653 C   0  0  0  0  0  0  0  0  0  0  0  0
   11.2414  -14.5934   25.1016 C   0  0  0  0  0  0  0  0  0  0  0  0
   11.0821  -15.6956   24.0889 C   0  0  2  0  0  0  0  0  0  0  0  0
    9.6889  -15.9787   23.8079 N   0  0  0  0  0  0  0  0  0  0  0  0
   11.7282  -16.9512   24.5381 C   0  0  0  0  0  0  0  0  0  0  0  0
   12.9485  -17.0097   24.8353 O   0  0  0  0  0  0  0  0  0  0  0  0
   11.7041  -15.3193   27.4677 C   0  0  0  0  0  0  0  0  0  0  0  0
   11.2385  -15.7476   28.6860 C   0  0  0  0  0  0  0  0  0  0  0  0
   11.0060  -18.1473   24.6556 O   0  0  0  0  0  0  0  0  0  0  0  0
  2  1  1  6
  2  3  1  0
  4  3  1  0
  4  5  2  0
  6  5  1  0
  7  6  1  0
  8  7  2  0
  9  8  1  0
 10  9  2  0
 10 11  1  0
 11 12  2  0
 12  7  1  0
 12  4  1  0
 13  2  1  0
 13 14  2  0
 15 13  1  0
 16 17  1  1
 16 15  1  0
 18 17  1  0
 18 23  1  0
 19 18  2  0
 20 19  1  0
 20 21  2  0
 21 22  1  0
 22 23  2  0
 24 16  1  0
 25 24  2  0
 27 26  1  0
 27 28  2  0
 29 28  1  0
 30 29  2  0
 32 31  1  1
 31 30  1  0
 32 33  1  0
 33 24  1  0
 34 38  1  0
 34 32  1  0
 35 34  2  0
 36 37  2  0
 36 30  1  0
 37 27  1  0
M  END
$$$$
