WFY.pdb
     RDKit          3D

 38 41  0  0  1  0  0  0  0  0999 V2000
    9.5096  -17.1219   17.5629 N   0  0  0  0  0  0  0  0  0  0  0  0
    9.6600  -17.5941   18.9105 C   0  0  1  0  0  0  0  0  0  0  0  0
   10.9027  -18.4240   19.1139 C   0  0  0  0  0  0  0  0  0  0  0  0
   10.5232  -19.8575   19.0426 C   0  0  0  0  0  0  0  0  0  0  0  0
   10.5905  -20.6480   17.8897 C   0  0  0  0  0  0  0  0  0  0  0  0
   10.2052  -21.9056   18.1672 N   0  0  0  0  0  0  0  0  0  0  0  0
    9.8837  -21.9721   19.4709 C   0  0  0  0  0  0  0  0  0  0  0  0
    9.4307  -23.0241   20.2362 C   0  0  0  0  0  0  0  0  0  0  0  0
    9.1724  -22.7873   21.5675 C   0  0  0  0  0  0  0  0  0  0  0  0
    9.3469  -21.5571   22.1546 C   0  0  0  0  0  0  0  0  0  0  0  0
    9.8059  -20.5038   21.3667 C   0  0  0  0  0  0  0  0  0  0  0  0
   10.0749  -20.7083   20.0299 C   0  0  0  0  0  0  0  0  0  0  0  0
    9.5613  -16.4850   19.8963 C   0  0  0  0  0  0  0  0  0  0  0  0
   10.4155  -15.5802   19.8910 O   0  0  0  0  0  0  0  0  0  0  0  0
    8.4777  -16.5090   20.8144 N   0  0  0  0  0  0  0  0  0  0  0  0
    8.4313  -15.4903   21.8373 C   0  0  1  0  0  0  0  0  0  0  0  0
    7.0972  -15.6040   22.6001 C   0  0  0  0  0  0  0  0  0  0  0  0
    6.9840  -14.5300   23.6094 C   0  0  0  0  0  0  0  0  0  0  0  0
    6.4976  -14.7808   24.8723 C   0  0  0  0  0  0  0  0  0  0  0  0
    6.3951  -13.7650   25.8174 C   0  0  0  0  0  0  0  0  0  0  0  0
    6.7754  -12.4737   25.5262 C   0  0  0  0  0  0  0  0  0  0  0  0
    7.2645  -12.2166   24.2589 C   0  0  0  0  0  0  0  0  0  0  0  0
    7.3646  -13.2416   23.3151 C   0  0  0  0  0  0  0  0  0  0  0  0
    9.4683  -15.7845   22.8507 C   0  0  0  0  0  0  0  0  0  0  0  0
   10.5470  -15.1539   22.7926 O   0  0  0  0  0  0  0  0  0  0  0  0
   11.7928  -15.0217   31.0362 O   0  0  0  0  0  0  0  0  0  0  0  0
   11.2311  -15.0800   29.7605 C   0  0  0  0  0  0  0  0  0  0  0  0
   10.3990  -14.0892   29.2856 C   0  0  0  0  0  0  0  0  0  0  0  0
    9.8840  -14.2196   28.0147 C   0  0  0  0  0  0  0  0  0  0  0  0
   10.1872  -15.3134   27.2245 C   0  0  0  0  0  0  0  0  0  0  0  0
    9.5720  -15.3520   25.8523 C   0  0  0  0  0  0  0  0  0  0  0  0
    9.8676  -16.6660   25.1803 C   0  0  2  0  0  0  0  0  0  0  0  0
    9.2577  -16.7555   23.8688 N   0  0  0  0  0  0  0  0  0  0  0  0
    9.3960  -17.8144   25.9894 C   0  0  0  0  0  0  0  0  0  0  0  0
    9.8278  -18.0422   27.1481 O   0  0  0  0  0  0  0  0  0  0  0  0
   11.0086  -16.2902   27.6950 C   0  0  0  0  0  0  0  0  0  0  0  0
   11.5325  -16.1797   28.9590 C   0  0  0  0  0  0  0  0  0  0  0  0
    8.4368  -18.7126   25.5003 O   0  0  0  0  0  0  0  0  0  0  0  0
  2  1  1  6
  2  3  1  0
  4  3  1  0
  4  5  2  0
  6  5  1  0
  7  6  1  0
  8  7  2  0
  9  8  1  0
 10  9  2  0
 10 11  1  0
 11 12  2  0
 12  7  1  0
 12  4  1  0
 13  2  1  0
 13 14  2  0
 15 13  1  0
 16 17  1  1
 16 15  1  0
 18 17  1  0
 18 23  1  0
 19 18  2  0
 20 19  1  0
 20 21  2  0
 21 22  1  0
 22 23  2  0
 24 16  1  0
 25 24  2  0
 27 26  1  0
 27 28  2  0
 29 28  1  0
 30 29  2  0
 32 31  1  1
 31 30  1  0
 32 33  1  0
 33 24  1  0
 34 38  1  0
 34 32  1  0
 35 34  2  0
 36 37  2  0
 36 30  1  0
 37 27  1  0
M  END
$$$$
