WFY.pdb
     RDKit          3D

 38 41  0  0  1  0  0  0  0  0999 V2000
    7.3391  -19.5711   21.4629 N   0  0  0  0  0  0  0  0  0  0  0  0
    7.5908  -18.1741   21.2472 C   0  0  1  0  0  0  0  0  0  0  0  0
    7.1129  -17.6851   19.9030 C   0  0  0  0  0  0  0  0  0  0  0  0
    7.8318  -16.4265   19.5819 C   0  0  0  0  0  0  0  0  0  0  0  0
    9.0431  -16.3509   18.8848 C   0  0  0  0  0  0  0  0  0  0  0  0
    9.4115  -15.0669   18.7342 N   0  0  0  0  0  0  0  0  0  0  0  0
    8.4797  -14.2885   19.3116 C   0  0  0  0  0  0  0  0  0  0  0  0
    8.3971  -12.9189   19.4330 C   0  0  0  0  0  0  0  0  0  0  0  0
    7.3099  -12.3959   20.0962 C   0  0  0  0  0  0  0  0  0  0  0  0
    6.3169  -13.1781   20.6350 C   0  0  0  0  0  0  0  0  0  0  0  0
    6.4155  -14.5615   20.5033 C   0  0  0  0  0  0  0  0  0  0  0  0
    7.4914  -15.1170   19.8437 C   0  0  0  0  0  0  0  0  0  0  0  0
    7.0670  -17.3420   22.3629 C   0  0  0  0  0  0  0  0  0  0  0  0
    5.8730  -16.9917   22.3602 O   0  0  0  0  0  0  0  0  0  0  0  0
    7.9686  -16.9791   23.3988 N   0  0  0  0  0  0  0  0  0  0  0  0
    7.9888  -15.6008   23.8300 C   0  0  1  0  0  0  0  0  0  0  0  0
    7.0773  -15.4461   25.0627 C   0  0  0  0  0  0  0  0  0  0  0  0
    7.2089  -14.0908   25.6380 C   0  0  0  0  0  0  0  0  0  0  0  0
    6.2976  -13.6065   26.5488 C   0  0  0  0  0  0  0  0  0  0  0  0
    6.4288  -12.3303   27.0869 C   0  0  0  0  0  0  0  0  0  0  0  0
    7.4724  -11.5054   26.7299 C   0  0  0  0  0  0  0  0  0  0  0  0
    8.3904  -11.9872   25.8153 C   0  0  0  0  0  0  0  0  0  0  0  0
    8.2522  -13.2697   25.2792 C   0  0  0  0  0  0  0  0  0  0  0  0
    9.3449  -15.2753   24.3239 C   0  0  0  0  0  0  0  0  0  0  0  0
    9.6183  -14.0765   24.5535 O   0  0  0  0  0  0  0  0  0  0  0  0
    8.7581  -14.9411   30.2884 O   0  0  0  0  0  0  0  0  0  0  0  0
    9.5983  -15.3602   29.2566 C   0  0  0  0  0  0  0  0  0  0  0  0
    9.6489  -16.6756   28.8479 C   0  0  0  0  0  0  0  0  0  0  0  0
   10.5046  -17.0102   27.8217 C   0  0  0  0  0  0  0  0  0  0  0  0
   11.2988  -16.0586   27.2082 C   0  0  0  0  0  0  0  0  0  0  0  0
   12.1937  -16.5344   26.0967 C   0  0  0  0  0  0  0  0  0  0  0  0
   11.7204  -15.9955   24.7733 C   0  0  2  0  0  0  0  0  0  0  0  0
   10.3210  -16.2881   24.5361 N   0  0  0  0  0  0  0  0  0  0  0  0
   12.5063  -16.5458   23.6440 C   0  0  0  0  0  0  0  0  0  0  0  0
   13.7522  -16.3998   23.5584 O   0  0  0  0  0  0  0  0  0  0  0  0
   11.2474  -14.7610   27.6129 C   0  0  0  0  0  0  0  0  0  0  0  0
   10.4013  -14.4063   28.6340 C   0  0  0  0  0  0  0  0  0  0  0  0
   11.8959  -17.2631   22.6053 O   0  0  0  0  0  0  0  0  0  0  0  0
  2  1  1  1
  2  3  1  0
  4  3  1  0
  4  5  2  0
  6  5  1  0
  7  6  1  0
  8  7  2  0
  9  8  1  0
 10  9  2  0
 10 11  1  0
 11 12  2  0
 12  7  1  0
 12  4  1  0
 13  2  1  0
 13 14  2  0
 15 13  1  0
 16 17  1  1
 16 15  1  0
 18 17  1  0
 18 23  1  0
 19 18  2  0
 20 19  1  0
 20 21  2  0
 21 22  1  0
 22 23  2  0
 24 16  1  0
 25 24  2  0
 27 26  1  0
 27 28  2  0
 29 28  1  0
 30 29  2  0
 32 31  1  1
 31 30  1  0
 32 33  1  0
 33 24  1  0
 34 38  1  0
 34 32  1  0
 35 34  2  0
 36 37  2  0
 36 30  1  0
 37 27  1  0
M  END
$$$$
