WFY.pdb
     RDKit          3D

 38 41  0  0  1  0  0  0  0  0999 V2000
    8.5471  -16.4751   22.0293 N   0  0  0  0  0  0  0  0  0  0  0  0
    8.6502  -15.1057   22.4482 C   0  0  1  0  0  0  0  0  0  0  0  0
    7.4267  -14.2891   22.1159 C   0  0  0  0  0  0  0  0  0  0  0  0
    7.1637  -14.4141   20.6601 C   0  0  0  0  0  0  0  0  0  0  0  0
    6.3004  -15.3499   20.0791 C   0  0  0  0  0  0  0  0  0  0  0  0
    6.2630  -15.1804   18.7461 N   0  0  0  0  0  0  0  0  0  0  0  0
    7.0769  -14.1594   18.4260 C   0  0  0  0  0  0  0  0  0  0  0  0
    7.3880  -13.6017   17.2054 C   0  0  0  0  0  0  0  0  0  0  0  0
    8.2769  -12.5507   17.1856 C   0  0  0  0  0  0  0  0  0  0  0  0
    8.8584  -12.0433   18.3226 C   0  0  0  0  0  0  0  0  0  0  0  0
    8.5330  -12.6184   19.5490 C   0  0  0  0  0  0  0  0  0  0  0  0
    7.6451  -13.6720   19.6032 C   0  0  0  0  0  0  0  0  0  0  0  0
    9.0220  -14.9961   23.8840 C   0  0  0  0  0  0  0  0  0  0  0  0
    9.3630  -13.8929   24.3480 O   0  0  0  0  0  0  0  0  0  0  0  0
    8.9698  -16.1754   24.6739 N   0  0  0  0  0  0  0  0  0  0  0  0
    9.4976  -16.1174   26.0171 C   0  0  1  0  0  0  0  0  0  0  0  0
    8.3271  -16.0080   27.0132 C   0  0  0  0  0  0  0  0  0  0  0  0
    7.7418  -14.6511   26.9784 C   0  0  0  0  0  0  0  0  0  0  0  0
    8.4453  -13.5548   27.4229 C   0  0  0  0  0  0  0  0  0  0  0  0
    7.8881  -12.2805   27.3859 C   0  0  0  0  0  0  0  0  0  0  0  0
    6.6154  -12.0681   26.9044 C   0  0  0  0  0  0  0  0  0  0  0  0
    5.9046  -13.1662   26.4567 C   0  0  0  0  0  0  0  0  0  0  0  0
    6.4704  -14.4427   26.4970 C   0  0  0  0  0  0  0  0  0  0  0  0
   10.1391  -17.4124   26.3339 C   0  0  0  0  0  0  0  0  0  0  0  0
    9.4044  -18.4113   26.4982 O   0  0  0  0  0  0  0  0  0  0  0  0
   15.5282  -17.0900   19.8382 O   0  0  0  0  0  0  0  0  0  0  0  0
   14.7087  -16.9485   20.9584 C   0  0  0  0  0  0  0  0  0  0  0  0
   13.9396  -17.9888   21.4337 C   0  0  0  0  0  0  0  0  0  0  0  0
   13.1564  -17.7696   22.5455 C   0  0  0  0  0  0  0  0  0  0  0  0
   13.1338  -16.5401   23.1784 C   0  0  0  0  0  0  0  0  0  0  0  0
   12.2450  -16.4132   24.3853 C   0  0  0  0  0  0  0  0  0  0  0  0
   12.4352  -17.5900   25.3044 C   0  0  2  0  0  0  0  0  0  0  0  0
   11.5516  -17.5324   26.4516 N   0  0  0  0  0  0  0  0  0  0  0  0
   13.8294  -17.6810   25.7980 C   0  0  0  0  0  0  0  0  0  0  0  0
   14.3049  -16.8599   26.6230 O   0  0  0  0  0  0  0  0  0  0  0  0
   13.8936  -15.5148   22.7077 C   0  0  0  0  0  0  0  0  0  0  0  0
   14.6812  -15.7120   21.6009 C   0  0  0  0  0  0  0  0  0  0  0  0
   14.6963  -18.6953   25.3669 O   0  0  0  0  0  0  0  0  0  0  0  0
  2  1  1  1
  2  3  1  0
  4  3  1  0
  4  5  2  0
  6  5  1  0
  7  6  1  0
  8  7  2  0
  9  8  1  0
 10  9  2  0
 10 11  1  0
 11 12  2  0
 12  7  1  0
 12  4  1  0
 13  2  1  0
 13 14  2  0
 15 13  1  0
 16 17  1  1
 16 15  1  0
 18 17  1  0
 18 23  1  0
 19 18  2  0
 20 19  1  0
 20 21  2  0
 21 22  1  0
 22 23  2  0
 24 16  1  0
 25 24  2  0
 27 26  1  0
 27 28  2  0
 29 28  1  0
 30 29  2  0
 32 31  1  1
 31 30  1  0
 32 33  1  0
 33 24  1  0
 34 38  1  0
 34 32  1  0
 35 34  2  0
 36 37  2  0
 36 30  1  0
 37 27  1  0
M  END
$$$$
