WFY.pdb
     RDKit          3D

 38 41  0  0  1  0  0  0  0  0999 V2000
    8.2863  -18.9841   21.5773 N   0  0  0  0  0  0  0  0  0  0  0  0
    8.9938  -17.9852   20.8270 C   0  0  1  0  0  0  0  0  0  0  0  0
    8.6606  -18.0001   19.3562 C   0  0  0  0  0  0  0  0  0  0  0  0
    8.4006  -19.4044   18.9510 C   0  0  0  0  0  0  0  0  0  0  0  0
    7.4620  -20.2512   19.5516 C   0  0  0  0  0  0  0  0  0  0  0  0
    7.4519  -21.4445   18.9328 N   0  0  0  0  0  0  0  0  0  0  0  0
    8.3572  -21.4140   17.9393 C   0  0  0  0  0  0  0  0  0  0  0  0
    8.7281  -22.3767   17.0265 C   0  0  0  0  0  0  0  0  0  0  0  0
    9.7080  -22.0555   16.1145 C   0  0  0  0  0  0  0  0  0  0  0  0
   10.3226  -20.8268   16.0806 C   0  0  0  0  0  0  0  0  0  0  0  0
    9.9357  -19.8643   17.0105 C   0  0  0  0  0  0  0  0  0  0  0  0
    8.9562  -20.1541   17.9368 C   0  0  0  0  0  0  0  0  0  0  0  0
    8.8318  -16.6322   21.4228 C   0  0  0  0  0  0  0  0  0  0  0  0
    9.3779  -15.6534   20.8825 O   0  0  0  0  0  0  0  0  0  0  0  0
    8.0474  -16.5168   22.6014 N   0  0  0  0  0  0  0  0  0  0  0  0
    8.0237  -15.2417   23.2795 C   0  0  1  0  0  0  0  0  0  0  0  0
    7.1319  -15.3543   24.5311 C   0  0  0  0  0  0  0  0  0  0  0  0
    7.0419  -14.0508   25.2224 C   0  0  0  0  0  0  0  0  0  0  0  0
    6.5278  -12.9395   24.5939 C   0  0  0  0  0  0  0  0  0  0  0  0
    6.4451  -11.7162   25.2515 C   0  0  0  0  0  0  0  0  0  0  0  0
    6.8731  -11.5712   26.5525 C   0  0  0  0  0  0  0  0  0  0  0  0
    7.3904  -12.6846   27.1882 C   0  0  0  0  0  0  0  0  0  0  0  0
    7.4703  -13.9096   26.5217 C   0  0  0  0  0  0  0  0  0  0  0  0
    9.3761  -14.9572   23.8077 C   0  0  0  0  0  0  0  0  0  0  0  0
    9.8349  -13.8022   23.6661 O   0  0  0  0  0  0  0  0  0  0  0  0
    9.5612  -17.4102   30.6226 O   0  0  0  0  0  0  0  0  0  0  0  0
   10.0847  -16.7943   29.4855 C   0  0  0  0  0  0  0  0  0  0  0  0
   10.8903  -17.4722   28.5962 C   0  0  0  0  0  0  0  0  0  0  0  0
   11.3681  -16.7937   27.4967 C   0  0  0  0  0  0  0  0  0  0  0  0
   11.0541  -15.4645   27.2793 C   0  0  0  0  0  0  0  0  0  0  0  0
   11.6279  -14.8236   26.0453 C   0  0  0  0  0  0  0  0  0  0  0  0
   11.5201  -15.7570   24.8695 C   0  0  2  0  0  0  0  0  0  0  0  0
   10.1446  -15.9604   24.4608 N   0  0  0  0  0  0  0  0  0  0  0  0
   12.1162  -17.0814   25.1638 C   0  0  0  0  0  0  0  0  0  0  0  0
   13.3078  -17.2124   25.5431 O   0  0  0  0  0  0  0  0  0  0  0  0
   10.2589  -14.7972   28.1583 C   0  0  0  0  0  0  0  0  0  0  0  0
    9.7722  -15.4548   29.2606 C   0  0  0  0  0  0  0  0  0  0  0  0
   11.3760  -18.2651   25.0333 O   0  0  0  0  0  0  0  0  0  0  0  0
  2  1  1  1
  2  3  1  0
  4  3  1  0
  4  5  2  0
  6  5  1  0
  7  6  1  0
  8  7  2  0
  9  8  1  0
 10  9  2  0
 10 11  1  0
 11 12  2  0
 12  7  1  0
 12  4  1  0
 13  2  1  0
 13 14  2  0
 15 13  1  0
 16 17  1  1
 16 15  1  0
 18 17  1  0
 18 23  1  0
 19 18  2  0
 20 19  1  0
 20 21  2  0
 21 22  1  0
 22 23  2  0
 24 16  1  0
 25 24  2  0
 27 26  1  0
 27 28  2  0
 29 28  1  0
 30 29  2  0
 32 31  1  1
 31 30  1  0
 32 33  1  0
 33 24  1  0
 34 38  1  0
 34 32  1  0
 35 34  2  0
 36 37  2  0
 36 30  1  0
 37 27  1  0
M  END
$$$$
