WFY.pdb
     RDKit          3D

 38 41  0  0  1  0  0  0  0  0999 V2000
    9.0816  -18.6445   20.3680 N   0  0  0  0  0  0  0  0  0  0  0  0
   10.2450  -17.8034   20.3456 C   0  0  1  0  0  0  0  0  0  0  0  0
   10.7107  -17.4707   18.9503 C   0  0  0  0  0  0  0  0  0  0  0  0
   10.5933  -18.6927   18.1155 C   0  0  0  0  0  0  0  0  0  0  0  0
    9.6361  -18.8899   17.1137 C   0  0  0  0  0  0  0  0  0  0  0  0
    9.8190  -20.0857   16.5273 N   0  0  0  0  0  0  0  0  0  0  0  0
   10.8696  -20.6876   17.1117 C   0  0  0  0  0  0  0  0  0  0  0  0
   11.4505  -21.9148   16.8794 C   0  0  0  0  0  0  0  0  0  0  0  0
   12.5302  -22.2731   17.6547 C   0  0  0  0  0  0  0  0  0  0  0  0
   13.0438  -21.4635   18.6392 C   0  0  0  0  0  0  0  0  0  0  0  0
   12.4448  -20.2254   18.8612 C   0  0  0  0  0  0  0  0  0  0  0  0
   11.3622  -19.8363   18.1010 C   0  0  0  0  0  0  0  0  0  0  0  0
   10.0593  -16.5851   21.1780 C   0  0  0  0  0  0  0  0  0  0  0  0
   10.9051  -15.6737   21.1307 O   0  0  0  0  0  0  0  0  0  0  0  0
    8.9049  -16.5158   22.0029 N   0  0  0  0  0  0  0  0  0  0  0  0
    8.7351  -15.3490   22.8371 C   0  0  1  0  0  0  0  0  0  0  0  0
    7.2510  -15.2253   23.2327 C   0  0  0  0  0  0  0  0  0  0  0  0
    7.0814  -14.2175   24.3007 C   0  0  0  0  0  0  0  0  0  0  0  0
    6.6408  -14.5699   25.5562 C   0  0  0  0  0  0  0  0  0  0  0  0
    6.4848  -13.6159   26.5567 C   0  0  0  0  0  0  0  0  0  0  0  0
    6.7645  -12.2865   26.3297 C   0  0  0  0  0  0  0  0  0  0  0  0
    7.2072  -11.9275   25.0702 C   0  0  0  0  0  0  0  0  0  0  0  0
    7.3615  -12.8909   24.0705 C   0  0  0  0  0  0  0  0  0  0  0  0
    9.4464  -15.5690   24.1156 C   0  0  0  0  0  0  0  0  0  0  0  0
    9.6267  -14.5863   24.8683 O   0  0  0  0  0  0  0  0  0  0  0  0
   11.2588  -13.4277   30.8181 O   0  0  0  0  0  0  0  0  0  0  0  0
   10.8780  -14.3443   29.8377 C   0  0  0  0  0  0  0  0  0  0  0  0
   10.2514  -13.9489   28.6755 C   0  0  0  0  0  0  0  0  0  0  0  0
    9.9067  -14.9147   27.7559 C   0  0  0  0  0  0  0  0  0  0  0  0
   10.1774  -16.2521   27.9817 C   0  0  0  0  0  0  0  0  0  0  0  0
    9.7599  -17.2205   26.9089 C   0  0  0  0  0  0  0  0  0  0  0  0
   10.6626  -17.0989   25.7106 C   0  0  2  0  0  0  0  0  0  0  0  0
    9.9178  -16.8575   24.4910 N   0  0  0  0  0  0  0  0  0  0  0  0
   11.4852  -18.3162   25.5174 C   0  0  0  0  0  0  0  0  0  0  0  0
   12.2959  -18.7242   26.3876 O   0  0  0  0  0  0  0  0  0  0  0  0
   10.7958  -16.6403   29.1293 C   0  0  0  0  0  0  0  0  0  0  0  0
   11.1477  -15.6936   30.0590 C   0  0  0  0  0  0  0  0  0  0  0  0
   11.4007  -19.0811   24.3454 O   0  0  0  0  0  0  0  0  0  0  0  0
  2  1  1  6
  2  3  1  0
  4  3  1  0
  4  5  2  0
  6  5  1  0
  7  6  1  0
  8  7  2  0
  9  8  1  0
 10  9  2  0
 10 11  1  0
 11 12  2  0
 12  7  1  0
 12  4  1  0
 13  2  1  0
 13 14  2  0
 15 13  1  0
 16 17  1  1
 16 15  1  0
 18 17  1  0
 18 23  1  0
 19 18  2  0
 20 19  1  0
 20 21  2  0
 21 22  1  0
 22 23  2  0
 24 16  1  0
 25 24  2  0
 27 26  1  0
 27 28  2  0
 29 28  1  0
 30 29  2  0
 32 31  1  1
 31 30  1  0
 32 33  1  0
 33 24  1  0
 34 38  1  0
 34 32  1  0
 35 34  2  0
 36 37  2  0
 36 30  1  0
 37 27  1  0
M  END
$$$$
