WFY.pdb
     RDKit          3D

 38 41  0  0  1  0  0  0  0  0999 V2000
    8.6757  -19.0897   21.6862 N   0  0  0  0  0  0  0  0  0  0  0  0
    9.3774  -18.0771   20.9488 C   0  0  1  0  0  0  0  0  0  0  0  0
    8.9587  -17.9983   19.5021 C   0  0  0  0  0  0  0  0  0  0  0  0
    9.0674  -19.3555   18.9104 C   0  0  0  0  0  0  0  0  0  0  0  0
    7.9860  -20.1255   18.4673 C   0  0  0  0  0  0  0  0  0  0  0  0
    8.4242  -21.2902   17.9589 N   0  0  0  0  0  0  0  0  0  0  0  0
    9.7651  -21.3152   18.0524 C   0  0  0  0  0  0  0  0  0  0  0  0
   10.6778  -22.2781   17.6816 C   0  0  0  0  0  0  0  0  0  0  0  0
   12.0110  -22.0242   17.9124 C   0  0  0  0  0  0  0  0  0  0  0  0
   12.4603  -20.8617   18.4913 C   0  0  0  0  0  0  0  0  0  0  0  0
   11.5244  -19.8981   18.8602 C   0  0  0  0  0  0  0  0  0  0  0  0
   10.1813  -20.1212   18.6417 C   0  0  0  0  0  0  0  0  0  0  0  0
    9.3043  -16.7543   21.6245 C   0  0  0  0  0  0  0  0  0  0  0  0
    9.7593  -15.7466   21.0536 O   0  0  0  0  0  0  0  0  0  0  0  0
    8.7079  -16.7002   22.9125 N   0  0  0  0  0  0  0  0  0  0  0  0
    8.5438  -15.4055   23.5314 C   0  0  1  0  0  0  0  0  0  0  0  0
    7.7205  -15.5666   24.8239 C   0  0  0  0  0  0  0  0  0  0  0  0
    7.2990  -14.2463   25.3380 C   0  0  0  0  0  0  0  0  0  0  0  0
    7.9969  -13.6104   26.3396 C   0  0  0  0  0  0  0  0  0  0  0  0
    7.5947  -12.3672   26.8175 C   0  0  0  0  0  0  0  0  0  0  0  0
    6.4865  -11.7275   26.3081 C   0  0  0  0  0  0  0  0  0  0  0  0
    5.7821  -12.3622   25.3020 C   0  0  0  0  0  0  0  0  0  0  0  0
    6.1918  -13.6104   24.8271 C   0  0  0  0  0  0  0  0  0  0  0  0
    9.8663  -14.9238   23.9874 C   0  0  0  0  0  0  0  0  0  0  0  0
   10.4538  -14.0647   23.2934 O   0  0  0  0  0  0  0  0  0  0  0  0
    9.4923  -18.3793   30.4935 O   0  0  0  0  0  0  0  0  0  0  0  0
   10.0596  -17.4300   29.6431 C   0  0  0  0  0  0  0  0  0  0  0  0
    9.5538  -16.1522   29.5380 C   0  0  0  0  0  0  0  0  0  0  0  0
   10.1703  -15.2725   28.6757 C   0  0  0  0  0  0  0  0  0  0  0  0
   11.2708  -15.6503   27.9281 C   0  0  0  0  0  0  0  0  0  0  0  0
   11.8663  -14.6084   27.0210 C   0  0  0  0  0  0  0  0  0  0  0  0
   11.8110  -15.0654   25.5880 C   0  0  2  0  0  0  0  0  0  0  0  0
   10.4651  -15.4156   25.1803 N   0  0  0  0  0  0  0  0  0  0  0  0
   12.6859  -16.2378   25.3517 C   0  0  0  0  0  0  0  0  0  0  0  0
   13.9252  -16.2044   25.5618 O   0  0  0  0  0  0  0  0  0  0  0  0
   11.7684  -16.9118   28.0333 C   0  0  0  0  0  0  0  0  0  0  0  0
   11.1689  -17.8042   28.8868 C   0  0  0  0  0  0  0  0  0  0  0  0
   12.1726  -17.4536   24.8782 O   0  0  0  0  0  0  0  0  0  0  0  0
  2  1  1  1
  2  3  1  0
  4  3  1  0
  4  5  2  0
  6  5  1  0
  7  6  1  0
  8  7  2  0
  9  8  1  0
 10  9  2  0
 10 11  1  0
 11 12  2  0
 12  7  1  0
 12  4  1  0
 13  2  1  0
 13 14  2  0
 15 13  1  0
 16 17  1  1
 16 15  1  0
 18 17  1  0
 18 23  1  0
 19 18  2  0
 20 19  1  0
 20 21  2  0
 21 22  1  0
 22 23  2  0
 24 16  1  0
 25 24  2  0
 27 26  1  0
 27 28  2  0
 29 28  1  0
 30 29  2  0
 32 31  1  1
 31 30  1  0
 32 33  1  0
 33 24  1  0
 34 38  1  0
 34 32  1  0
 35 34  2  0
 36 37  2  0
 36 30  1  0
 37 27  1  0
M  END
$$$$
