WFY.pdb
     RDKit          3D

 38 41  0  0  1  0  0  0  0  0999 V2000
    8.2266  -16.6988   21.8609 N   0  0  0  0  0  0  0  0  0  0  0  0
    8.4738  -15.2892   21.9773 C   0  0  1  0  0  0  0  0  0  0  0  0
    7.2772  -14.4446   21.6182 C   0  0  0  0  0  0  0  0  0  0  0  0
    6.9449  -14.6887   20.1920 C   0  0  0  0  0  0  0  0  0  0  0  0
    6.1358  -15.7306   19.7246 C   0  0  0  0  0  0  0  0  0  0  0  0
    6.0089  -15.6548   18.3885 N   0  0  0  0  0  0  0  0  0  0  0  0
    6.7109  -14.5929   17.9560 C   0  0  0  0  0  0  0  0  0  0  0  0
    6.9029  -14.0944   16.6863 C   0  0  0  0  0  0  0  0  0  0  0  0
    7.6936  -12.9762   16.5464 C   0  0  0  0  0  0  0  0  0  0  0  0
    8.2913  -12.3466   17.6117 C   0  0  0  0  0  0  0  0  0  0  0  0
    8.0869  -12.8633   18.8892 C   0  0  0  0  0  0  0  0  0  0  0  0
    7.2993  -13.9816   19.0634 C   0  0  0  0  0  0  0  0  0  0  0  0
    9.0268  -14.9360   23.3119 C   0  0  0  0  0  0  0  0  0  0  0  0
    9.4225  -13.7758   23.5256 O   0  0  0  0  0  0  0  0  0  0  0  0
    9.0787  -15.9563   24.2988 N   0  0  0  0  0  0  0  0  0  0  0  0
    9.7800  -15.6756   25.5299 C   0  0  1  0  0  0  0  0  0  0  0  0
    8.7732  -15.6883   26.6964 C   0  0  0  0  0  0  0  0  0  0  0  0
    7.9802  -14.4408   26.7104 C   0  0  0  0  0  0  0  0  0  0  0  0
    6.6448  -14.4360   26.3772 C   0  0  0  0  0  0  0  0  0  0  0  0
    5.9046  -13.2581   26.3939 C   0  0  0  0  0  0  0  0  0  0  0  0
    6.4782  -12.0558   26.7434 C   0  0  0  0  0  0  0  0  0  0  0  0
    7.8194  -12.0553   27.0788 C   0  0  0  0  0  0  0  0  0  0  0  0
    8.5563  -13.2419   27.0598 C   0  0  0  0  0  0  0  0  0  0  0  0
   10.7025  -16.7955   25.8193 C   0  0  0  0  0  0  0  0  0  0  0  0
   10.6086  -17.3670   26.9280 O   0  0  0  0  0  0  0  0  0  0  0  0
    7.2644  -21.5729   25.4627 O   0  0  0  0  0  0  0  0  0  0  0  0
    8.5241  -21.0507   25.1680 C   0  0  0  0  0  0  0  0  0  0  0  0
    8.7481  -20.2779   24.0490 C   0  0  0  0  0  0  0  0  0  0  0  0
   10.0205  -19.7991   23.8277 C   0  0  0  0  0  0  0  0  0  0  0  0
   11.0566  -20.0800   24.6996 C   0  0  0  0  0  0  0  0  0  0  0  0
   12.4044  -19.5036   24.3619 C   0  0  0  0  0  0  0  0  0  0  0  0
   12.6542  -18.2501   25.1569 C   0  0  2  0  0  0  0  0  0  0  0  0
   11.6745  -17.2209   24.8718 N   0  0  0  0  0  0  0  0  0  0  0  0
   14.0015  -17.6924   24.8931 C   0  0  0  0  0  0  0  0  0  0  0  0
   15.0540  -18.3379   25.1305 O   0  0  0  0  0  0  0  0  0  0  0  0
   10.8335  -20.8430   25.8034 C   0  0  0  0  0  0  0  0  0  0  0  0
    9.5726  -21.3302   26.0426 C   0  0  0  0  0  0  0  0  0  0  0  0
   14.1727  -16.4064   24.3612 O   0  0  0  0  0  0  0  0  0  0  0  0
  2  1  1  1
  2  3  1  0
  4  3  1  0
  4  5  2  0
  6  5  1  0
  7  6  1  0
  8  7  2  0
  9  8  1  0
 10  9  2  0
 10 11  1  0
 11 12  2  0
 12  7  1  0
 12  4  1  0
 13  2  1  0
 13 14  2  0
 15 13  1  0
 16 17  1  1
 16 15  1  0
 18 17  1  0
 18 23  1  0
 19 18  2  0
 20 19  1  0
 20 21  2  0
 21 22  1  0
 22 23  2  0
 24 16  1  0
 25 24  2  0
 27 26  1  0
 27 28  2  0
 29 28  1  0
 30 29  2  0
 32 31  1  6
 31 30  1  0
 32 33  1  0
 33 24  1  0
 34 38  1  0
 34 32  1  0
 35 34  2  0
 36 37  2  0
 36 30  1  0
 37 27  1  0
M  END
$$$$
