WFY.pdb
     RDKit          3D

 38 41  0  0  1  0  0  0  0  0999 V2000
    6.2543  -19.1438   20.3952 N   0  0  0  0  0  0  0  0  0  0  0  0
    6.0758  -17.8975   21.0853 C   0  0  1  0  0  0  0  0  0  0  0  0
    5.4393  -18.0562   22.4432 C   0  0  0  0  0  0  0  0  0  0  0  0
    4.3426  -19.0504   22.3311 C   0  0  0  0  0  0  0  0  0  0  0  0
    4.1745  -20.1566   23.1719 C   0  0  0  0  0  0  0  0  0  0  0  0
    3.0709  -20.8401   22.8229 N   0  0  0  0  0  0  0  0  0  0  0  0
    2.5022  -20.2196   21.7746 C   0  0  0  0  0  0  0  0  0  0  0  0
    1.3695  -20.5233   21.0520 C   0  0  0  0  0  0  0  0  0  0  0  0
    1.0313  -19.6942   20.0063 C   0  0  0  0  0  0  0  0  0  0  0  0
    1.7715  -18.5892   19.6603 C   0  0  0  0  0  0  0  0  0  0  0  0
    2.9141  -18.2959   20.4014 C   0  0  0  0  0  0  0  0  0  0  0  0
    3.2796  -19.1061   21.4556 C   0  0  0  0  0  0  0  0  0  0  0  0
    7.3405  -17.1177   21.1487 C   0  0  0  0  0  0  0  0  0  0  0  0
    8.4273  -17.6928   20.9571 O   0  0  0  0  0  0  0  0  0  0  0  0
    7.2490  -15.7282   21.4292 N   0  0  0  0  0  0  0  0  0  0  0  0
    8.0077  -15.2087   22.5431 C   0  0  1  0  0  0  0  0  0  0  0  0
    7.1941  -15.3984   23.8379 C   0  0  0  0  0  0  0  0  0  0  0  0
    7.2615  -14.1822   24.6755 C   0  0  0  0  0  0  0  0  0  0  0  0
    7.8704  -13.0333   24.2242 C   0  0  0  0  0  0  0  0  0  0  0  0
    7.9289  -11.8921   25.0178 C   0  0  0  0  0  0  0  0  0  0  0  0
    7.3814  -11.8687   26.2813 C   0  0  0  0  0  0  0  0  0  0  0  0
    6.7687  -13.0203   26.7393 C   0  0  0  0  0  0  0  0  0  0  0  0
    6.7138  -14.1624   25.9368 C   0  0  0  0  0  0  0  0  0  0  0  0
    9.2124  -16.0464   22.7318 C   0  0  0  0  0  0  0  0  0  0  0  0
    9.1538  -17.2500   22.3962 O   0  0  0  0  0  0  0  0  0  0  0  0
   10.8973  -16.0834   30.9578 O   0  0  0  0  0  0  0  0  0  0  0  0
   10.6599  -15.7744   29.6182 C   0  0  0  0  0  0  0  0  0  0  0  0
   11.6703  -15.7750   28.6808 C   0  0  0  0  0  0  0  0  0  0  0  0
   11.3551  -15.4589   27.3777 C   0  0  0  0  0  0  0  0  0  0  0  0
   10.0600  -15.1468   27.0064 C   0  0  0  0  0  0  0  0  0  0  0  0
    9.8287  -14.8201   25.5563 C   0  0  0  0  0  0  0  0  0  0  0  0
   10.7549  -15.6226   24.6824 C   0  0  2  0  0  0  0  0  0  0  0  0
   10.4113  -15.5109   23.2789 N   0  0  0  0  0  0  0  0  0  0  0  0
   10.7474  -17.0586   25.0479 C   0  0  0  0  0  0  0  0  0  0  0  0
   11.7642  -17.6413   25.5034 O   0  0  0  0  0  0  0  0  0  0  0  0
    9.0642  -15.1468   27.9329 C   0  0  0  0  0  0  0  0  0  0  0  0
    9.3569  -15.4589   29.2372 C   0  0  0  0  0  0  0  0  0  0  0  0
    9.5969  -17.8470   24.9033 O   0  0  0  0  0  0  0  0  0  0  0  0
  2  1  1  1
  2  3  1  0
  4  3  1  0
  4  5  2  0
  6  5  1  0
  7  6  1  0
  8  7  2  0
  9  8  1  0
 10  9  2  0
 10 11  1  0
 11 12  2  0
 12  7  1  0
 12  4  1  0
 13  2  1  0
 13 14  2  0
 15 13  1  0
 16 17  1  1
 16 15  1  0
 18 17  1  0
 18 23  1  0
 19 18  2  0
 20 19  1  0
 20 21  2  0
 21 22  1  0
 22 23  2  0
 24 16  1  0
 25 24  2  0
 27 26  1  0
 27 28  2  0
 29 28  1  0
 30 29  2  0
 32 31  1  1
 31 30  1  0
 32 33  1  0
 33 24  1  0
 34 38  1  0
 34 32  1  0
 35 34  2  0
 36 37  2  0
 36 30  1  0
 37 27  1  0
M  END
$$$$
