GVQ.pdb
     RDKit          3D

 21 20  0  0  1  0  0  0  0  0999 V2000
   23.6079  -16.5280  -17.7072 N   0  0  0  0  0  0  0  0  0  0  0  0
   24.2555  -15.3712  -18.2852 C   0  0  0  0  0  0  0  0  0  0  0  0
   24.6099  -14.3644  -17.2516 C   0  0  0  0  0  0  0  0  0  0  0  0
   23.9018  -14.3225  -16.2138 O   0  0  0  0  0  0  0  0  0  0  0  0
   28.2255  -13.3948  -15.8172 C   0  0  0  0  0  0  0  0  0  0  0  0
   27.5022  -12.1962  -16.3416 C   0  0  2  0  0  0  0  0  0  0  0  0
   27.7798  -10.9471  -15.5396 C   0  0  0  0  0  0  0  0  0  0  0  0
   26.0121  -12.4247  -16.4697 C   0  0  2  0  0  0  0  0  0  0  0  0
   25.7069  -13.4748  -17.4173 N   0  0  0  0  0  0  0  0  0  0  0  0
   25.3602  -11.1569  -16.9115 C   0  0  0  0  0  0  0  0  0  0  0  0
   25.5205  -10.8140  -18.1041 O   0  0  0  0  0  0  0  0  0  0  0  0
   20.8083   -7.9670  -13.7215 N   0  0  0  0  0  0  0  0  0  0  0  0
   20.9618   -7.2240  -14.9227 C   0  0  0  0  0  0  0  0  0  0  0  0
   20.2234   -6.2342  -15.1155 O   0  0  0  0  0  0  0  0  0  0  0  0
   21.9815   -7.6447  -15.8968 C   0  0  0  0  0  0  0  0  0  0  0  0
   22.7149   -8.8936  -15.5714 C   0  0  0  0  0  0  0  0  0  0  0  0
   23.8414   -9.1862  -16.4929 C   0  0  2  0  0  0  0  0  0  0  0  0
   24.5872  -10.3640  -16.0240 N   0  0  0  0  0  0  0  0  0  0  0  0
   24.7794   -8.0703  -16.6265 C   0  0  0  0  0  0  0  0  0  0  0  0
   25.7075   -7.9300  -15.7925 O   0  0  0  0  0  0  0  0  0  0  0  0
   24.7179   -7.1279  -17.6384 O   0  0  0  0  0  0  0  0  0  0  0  0
  1  2  1  0
  3  2  1  0
  3  4  2  0
  6  5  1  1
  6  8  1  0
  7  6  1  0
  8  9  1  6
  8 10  1  0
  9  3  1  0
 10 11  2  0
 13 14  2  0
 13 12  1  0
 15 13  1  0
 16 15  1  0
 17 16  1  1
 18 10  1  0
 18 17  1  0
 19 21  1  0
 19 17  1  0
 20 19  2  0
M  END
$$$$
