GVQ.pdb
     RDKit          3D

 21 20  0  0  1  0  0  0  0  0999 V2000
   19.2151  -14.8341  -17.2975 N   0  0  0  0  0  0  0  0  0  0  0  0
   18.9290  -13.4166  -17.2765 C   0  0  0  0  0  0  0  0  0  0  0  0
   19.5931  -12.7373  -16.1340 C   0  0  0  0  0  0  0  0  0  0  0  0
   19.2203  -13.0504  -14.9751 O   0  0  0  0  0  0  0  0  0  0  0  0
   23.5273  -11.9085  -15.7312 C   0  0  0  0  0  0  0  0  0  0  0  0
   22.6720  -10.6990  -15.5305 C   0  0  2  0  0  0  0  0  0  0  0  0
   23.2171   -9.7642  -14.4772 C   0  0  0  0  0  0  0  0  0  0  0  0
   21.2296  -11.0478  -15.2356 C   0  0  2  0  0  0  0  0  0  0  0  0
   20.6141  -11.7670  -16.3300 N   0  0  0  0  0  0  0  0  0  0  0  0
   20.4661   -9.7911  -14.9800 C   0  0  0  0  0  0  0  0  0  0  0  0
   20.2151   -9.0611  -15.9648 O   0  0  0  0  0  0  0  0  0  0  0  0
   16.7420   -8.5847   -9.9578 N   0  0  0  0  0  0  0  0  0  0  0  0
   16.8122   -7.3258  -10.6125 C   0  0  0  0  0  0  0  0  0  0  0  0
   16.1436   -6.3733  -10.1565 O   0  0  0  0  0  0  0  0  0  0  0  0
   17.6664   -7.1869  -11.8027 C   0  0  0  0  0  0  0  0  0  0  0  0
   18.3392   -8.4256  -12.2678 C   0  0  0  0  0  0  0  0  0  0  0  0
   19.2279   -8.2229  -13.4396 C   0  0  2  0  0  0  0  0  0  0  0  0
   20.0367   -9.4281  -13.6771 N   0  0  0  0  0  0  0  0  0  0  0  0
   20.1337   -7.0836  -13.2836 C   0  0  0  0  0  0  0  0  0  0  0  0
   21.2412   -7.2387  -12.7126 O   0  0  0  0  0  0  0  0  0  0  0  0
   19.8513   -5.8061  -13.7353 O   0  0  0  0  0  0  0  0  0  0  0  0
  1  2  1  0
  3  2  1  0
  3  4  2  0
  6  5  1  1
  6  8  1  0
  7  6  1  0
  8  9  1  6
  8 10  1  0
  9  3  1  0
 10 11  2  0
 13 14  2  0
 13 12  1  0
 15 13  1  0
 16 15  1  0
 17 16  1  1
 18 10  1  0
 18 17  1  0
 19 21  1  0
 19 17  1  0
 20 19  2  0
M  END
$$$$
