GVQ.pdb
     RDKit          3D

 21 20  0  0  1  0  0  0  0  0999 V2000
   28.7576  -29.6812  -16.3625 N   0  0  0  0  0  0  0  0  0  0  0  0
   29.1136  -28.6088  -17.2652 C   0  0  0  0  0  0  0  0  0  0  0  0
   28.6607  -27.2879  -16.7573 C   0  0  0  0  0  0  0  0  0  0  0  0
   28.1230  -27.2550  -15.6216 O   0  0  0  0  0  0  0  0  0  0  0  0
   30.8976  -24.0529  -17.0019 C   0  0  0  0  0  0  0  0  0  0  0  0
   29.5032  -23.7419  -17.4423 C   0  0  2  0  0  0  0  0  0  0  0  0
   29.0511  -22.3626  -17.0254 C   0  0  0  0  0  0  0  0  0  0  0  0
   28.5042  -24.7861  -16.9946 C   0  0  2  0  0  0  0  0  0  0  0  0
   28.8234  -26.0971  -17.5173 N   0  0  0  0  0  0  0  0  0  0  0  0
   27.1422  -24.3887  -17.4577 C   0  0  0  0  0  0  0  0  0  0  0  0
   26.9162  -24.4391  -18.6874 O   0  0  0  0  0  0  0  0  0  0  0  0
   22.2995  -26.6459  -17.2304 N   0  0  0  0  0  0  0  0  0  0  0  0
   21.6442  -25.3860  -17.1922 C   0  0  0  0  0  0  0  0  0  0  0  0
   20.4639  -25.3100  -17.5967 O   0  0  0  0  0  0  0  0  0  0  0  0
   22.3757  -24.2162  -16.6802 C   0  0  0  0  0  0  0  0  0  0  0  0
   23.7797  -24.4589  -16.2639 C   0  0  0  0  0  0  0  0  0  0  0  0
   24.7752  -23.6427  -17.0033 C   0  0  2  0  0  0  0  0  0  0  0  0
   26.1357  -23.9689  -16.5496 N   0  0  0  0  0  0  0  0  0  0  0  0
   24.5695  -22.2022  -16.8440 C   0  0  0  0  0  0  0  0  0  0  0  0
   25.2191  -21.5699  -15.9751 O   0  0  0  0  0  0  0  0  0  0  0  0
   23.6838  -21.4605  -17.6064 O   0  0  0  0  0  0  0  0  0  0  0  0
  1  2  1  0
  3  2  1  0
  3  4  2  0
  6  5  1  1
  6  8  1  0
  7  6  1  0
  8  9  1  6
  8 10  1  0
  9  3  1  0
 10 11  2  0
 13 14  2  0
 13 12  1  0
 15 13  1  0
 16 15  1  0
 17 16  1  1
 18 10  1  0
 18 17  1  0
 19 21  1  0
 19 17  1  0
 20 19  2  0
M  END
$$$$
