GVQ.pdb
     RDKit          3D

 21 20  0  0  1  0  0  0  0  0999 V2000
   30.0061  -23.9825  -17.4496 N   0  0  0  0  0  0  0  0  0  0  0  0
   28.8110  -23.2043  -17.6901 C   0  0  0  0  0  0  0  0  0  0  0  0
   28.5526  -22.2378  -16.5915 C   0  0  0  0  0  0  0  0  0  0  0  0
   29.2330  -22.3559  -15.5412 O   0  0  0  0  0  0  0  0  0  0  0  0
   26.1300  -18.7280  -17.2692 C   0  0  0  0  0  0  0  0  0  0  0  0
   27.2109  -18.8325  -16.2417 C   0  0  2  0  0  0  0  0  0  0  0  0
   28.5460  -18.3360  -16.7433 C   0  0  0  0  0  0  0  0  0  0  0  0
   27.3427  -20.2289  -15.6746 C   0  0  2  0  0  0  0  0  0  0  0  0
   27.5747  -21.2121  -16.7106 N   0  0  0  0  0  0  0  0  0  0  0  0
   26.0929  -20.5758  -14.9363 C   0  0  0  0  0  0  0  0  0  0  0  0
   25.2051  -21.1915  -15.5675 O   0  0  0  0  0  0  0  0  0  0  0  0
   23.5935  -21.5380   -8.2002 N   0  0  0  0  0  0  0  0  0  0  0  0
   23.8489  -20.4721   -9.1040 C   0  0  0  0  0  0  0  0  0  0  0  0
   24.1821  -19.3594   -8.6422 O   0  0  0  0  0  0  0  0  0  0  0  0
   23.7118  -20.7134  -10.5492 C   0  0  0  0  0  0  0  0  0  0  0  0
   24.9143  -20.4305  -11.3722 C   0  0  0  0  0  0  0  0  0  0  0  0
   24.7096  -20.6417  -12.8274 C   0  0  2  0  0  0  0  0  0  0  0  0
   25.9074  -20.2269  -13.5734 N   0  0  0  0  0  0  0  0  0  0  0  0
   23.5594  -19.9083  -13.3584 C   0  0  0  0  0  0  0  0  0  0  0  0
   23.7115  -18.7449  -13.8054 O   0  0  0  0  0  0  0  0  0  0  0  0
   22.2741  -20.4198  -13.4072 O   0  0  0  0  0  0  0  0  0  0  0  0
  1  2  1  0
  3  2  1  0
  3  4  2  0
  6  5  1  6
  6  8  1  0
  7  6  1  0
  8  9  1  6
  8 10  1  0
  9  3  1  0
 10 11  2  0
 13 14  2  0
 13 12  1  0
 15 13  1  0
 16 15  1  0
 17 16  1  1
 18 10  1  0
 18 17  1  0
 19 21  1  0
 19 17  1  0
 20 19  2  0
M  END
$$$$
