GVQ.pdb
     RDKit          3D

 21 20  0  0  1  0  0  0  0  0999 V2000
   28.2305  -24.1099  -16.4795 N   0  0  0  0  0  0  0  0  0  0  0  0
   28.0847  -22.8278  -17.1327 C   0  0  0  0  0  0  0  0  0  0  0  0
   27.3014  -21.8739  -16.3055 C   0  0  0  0  0  0  0  0  0  0  0  0
   26.8757  -22.2809  -15.1951 O   0  0  0  0  0  0  0  0  0  0  0  0
   28.5459  -18.4309  -15.3760 C   0  0  0  0  0  0  0  0  0  0  0  0
   27.1421  -18.2604  -15.8608 C   0  0  2  0  0  0  0  0  0  0  0  0
   26.3735  -17.2233  -15.0770 C   0  0  0  0  0  0  0  0  0  0  0  0
   26.3784  -19.5657  -15.9056 C   0  0  2  0  0  0  0  0  0  0  0  0
   27.0359  -20.5467  -16.7417 N   0  0  0  0  0  0  0  0  0  0  0  0
   25.0054  -19.3100  -16.4317 C   0  0  0  0  0  0  0  0  0  0  0  0
   24.9090  -18.8963  -17.6086 O   0  0  0  0  0  0  0  0  0  0  0  0
   18.8673  -19.8740  -14.6091 N   0  0  0  0  0  0  0  0  0  0  0  0
   19.8857  -19.6106  -13.6543 C   0  0  0  0  0  0  0  0  0  0  0  0
   19.5531  -19.2464  -12.5058 O   0  0  0  0  0  0  0  0  0  0  0  0
   21.2939  -19.7740  -14.0493 C   0  0  0  0  0  0  0  0  0  0  0  0
   21.5300  -20.2045  -15.4501 C   0  0  0  0  0  0  0  0  0  0  0  0
   22.4946  -19.3497  -16.1869 C   0  0  2  0  0  0  0  0  0  0  0  0
   23.8482  -19.5238  -15.6385 N   0  0  0  0  0  0  0  0  0  0  0  0
   22.1566  -17.9263  -16.1359 C   0  0  0  0  0  0  0  0  0  0  0  0
   22.7536  -17.1701  -15.3307 O   0  0  0  0  0  0  0  0  0  0  0  0
   21.1969  -17.3322  -16.9371 O   0  0  0  0  0  0  0  0  0  0  0  0
  1  2  1  0
  3  2  1  0
  3  4  2  0
  6  5  1  1
  6  8  1  0
  7  6  1  0
  8  9  1  6
  8 10  1  0
  9  3  1  0
 10 11  2  0
 13 14  2  0
 13 12  1  0
 15 13  1  0
 16 15  1  0
 17 16  1  1
 18 10  1  0
 18 17  1  0
 19 21  1  0
 19 17  1  0
 20 19  2  0
M  END
$$$$
