GVQ.pdb
     RDKit          3D

 21 20  0  0  1  0  0  0  0  0999 V2000
   20.6599  -16.4013  -14.9988 N   0  0  0  0  0  0  0  0  0  0  0  0
   21.8958  -15.8936  -14.4450 C   0  0  0  0  0  0  0  0  0  0  0  0
   23.0828  -16.5379  -15.0643 C   0  0  0  0  0  0  0  0  0  0  0  0
   22.9101  -17.6401  -15.6434 O   0  0  0  0  0  0  0  0  0  0  0  0
   26.0111  -14.5478  -16.9596 C   0  0  0  0  0  0  0  0  0  0  0  0
   26.5773  -15.5586  -16.0148 C   0  0  2  0  0  0  0  0  0  0  0  0
   27.8022  -16.2512  -16.5628 C   0  0  0  0  0  0  0  0  0  0  0  0
   25.5504  -16.5740  -15.5637 C   0  0  2  0  0  0  0  0  0  0  0  0
   24.3723  -15.9408  -15.0114 N   0  0  0  0  0  0  0  0  0  0  0  0
   26.1625  -17.4619  -14.5321 C   0  0  0  0  0  0  0  0  0  0  0  0
   26.4027  -16.9599  -13.4114 O   0  0  0  0  0  0  0  0  0  0  0  0
   24.1302  -20.5493  -10.6571 N   0  0  0  0  0  0  0  0  0  0  0  0
   25.4759  -20.9652  -10.4715 C   0  0  0  0  0  0  0  0  0  0  0  0
   25.7924  -21.5123   -9.3932 O   0  0  0  0  0  0  0  0  0  0  0  0
   26.4489  -20.7372  -11.5517 C   0  0  0  0  0  0  0  0  0  0  0  0
   25.9862  -19.8817  -12.6731 C   0  0  0  0  0  0  0  0  0  0  0  0
   26.9889  -19.7156  -13.7553 C   0  0  2  0  0  0  0  0  0  0  0  0
   26.4645  -18.8225  -14.7996 N   0  0  0  0  0  0  0  0  0  0  0  0
   27.3729  -20.9816  -14.3821 C   0  0  0  0  0  0  0  0  0  0  0  0
   26.6264  -21.5033  -15.2465 O   0  0  0  0  0  0  0  0  0  0  0  0
   28.5372  -21.6680  -14.0838 O   0  0  0  0  0  0  0  0  0  0  0  0
  1  2  1  0
  3  2  1  0
  3  4  2  0
  6  5  1  6
  6  8  1  0
  7  6  1  0
  8  9  1  1
  8 10  1  0
  9  3  1  0
 10 11  2  0
 13 14  2  0
 13 12  1  0
 15 13  1  0
 16 15  1  0
 17 16  1  1
 18 10  1  0
 18 17  1  0
 19 21  1  0
 19 17  1  0
 20 19  2  0
M  END
$$$$
