GVQ.pdb
     RDKit          3D

 21 20  0  0  1  0  0  0  0  0999 V2000
   13.9781  -12.9249  -11.4334 N   0  0  0  0  0  0  0  0  0  0  0  0
   15.0711  -12.1738  -10.8564 C   0  0  0  0  0  0  0  0  0  0  0  0
   14.7760  -10.7182  -10.8112 C   0  0  0  0  0  0  0  0  0  0  0  0
   14.0611  -10.2412  -11.7284 O   0  0  0  0  0  0  0  0  0  0  0  0
   13.2270   -8.5337   -8.0823 C   0  0  0  0  0  0  0  0  0  0  0  0
   14.5660   -7.9639   -8.4245 C   0  0  2  0  0  0  0  0  0  0  0  0
   14.5938   -6.4552   -8.3630 C   0  0  0  0  0  0  0  0  0  0  0  0
   15.0821   -8.4504   -9.7610 C   0  0  2  0  0  0  0  0  0  0  0  0
   15.2773   -9.8841   -9.7743 N   0  0  0  0  0  0  0  0  0  0  0  0
   16.3782   -7.7734  -10.0594 C   0  0  0  0  0  0  0  0  0  0  0  0
   17.4115   -8.2603   -9.5486 O   0  0  0  0  0  0  0  0  0  0  0  0
   19.8641   -9.0228  -13.7213 N   0  0  0  0  0  0  0  0  0  0  0  0
   20.4521   -7.7434  -13.5321 C   0  0  0  0  0  0  0  0  0  0  0  0
   21.5730   -7.5167  -14.0366 O   0  0  0  0  0  0  0  0  0  0  0  0
   19.7240   -6.7319  -12.7496 C   0  0  0  0  0  0  0  0  0  0  0  0
   18.4576   -7.1843  -12.1211 C   0  0  0  0  0  0  0  0  0  0  0  0
   17.7328   -6.1135  -11.3918 C   0  0  2  0  0  0  0  0  0  0  0  0
   16.4486   -6.6232  -10.8876 N   0  0  0  0  0  0  0  0  0  0  0  0
   17.4680   -4.9338  -12.2172 C   0  0  0  0  0  0  0  0  0  0  0  0
   16.4200   -4.8750  -12.9063 O   0  0  0  0  0  0  0  0  0  0  0  0
   18.3147   -3.8416  -12.2959 O   0  0  0  0  0  0  0  0  0  0  0  0
  1  2  1  0
  3  2  1  0
  3  4  2  0
  6  5  1  6
  6  8  1  0
  7  6  1  0
  8  9  1  1
  8 10  1  0
  9  3  1  0
 10 11  2  0
 13 14  2  0
 13 12  1  0
 15 13  1  0
 16 15  1  0
 17 16  1  6
 18 10  1  0
 18 17  1  0
 19 21  1  0
 19 17  1  0
 20 19  2  0
M  END
$$$$
