GVQ.pdb
     RDKit          3D

 21 20  0  0  1  0  0  0  0  0999 V2000
   27.4769  -19.7854  -14.8128 N   0  0  0  0  0  0  0  0  0  0  0  0
   27.2093  -18.9246  -15.9438 C   0  0  0  0  0  0  0  0  0  0  0  0
   26.7834  -17.5673  -15.5145 C   0  0  0  0  0  0  0  0  0  0  0  0
   26.5374  -17.3941  -14.2940 O   0  0  0  0  0  0  0  0  0  0  0  0
   28.3291  -14.0860  -16.3396 C   0  0  0  0  0  0  0  0  0  0  0  0
   26.8781  -14.0665  -16.6993 C   0  0  2  0  0  0  0  0  0  0  0  0
   26.2156  -12.7452  -16.3898 C   0  0  0  0  0  0  0  0  0  0  0  0
   26.1069  -15.2070  -16.0722 C   0  0  2  0  0  0  0  0  0  0  0  0
   26.6548  -16.4949  -16.4395 N   0  0  0  0  0  0  0  0  0  0  0  0
   24.6827  -15.1333  -16.5123 C   0  0  0  0  0  0  0  0  0  0  0  0
   24.4036  -15.6067  -17.6364 O   0  0  0  0  0  0  0  0  0  0  0  0
   20.1583  -17.9130  -14.3531 N   0  0  0  0  0  0  0  0  0  0  0  0
   19.4333  -17.0031  -15.1685 C   0  0  0  0  0  0  0  0  0  0  0  0
   18.2217  -17.2226  -15.3830 O   0  0  0  0  0  0  0  0  0  0  0  0
   20.1320  -15.8370  -15.7322 C   0  0  0  0  0  0  0  0  0  0  0  0
   21.5763  -15.7257  -15.4080 C   0  0  0  0  0  0  0  0  0  0  0  0
   22.2570  -14.5903  -16.0800 C   0  0  2  0  0  0  0  0  0  0  0  0
   23.6767  -14.5521  -15.6974 N   0  0  0  0  0  0  0  0  0  0  0  0
   21.6593  -13.2924  -15.7624 C   0  0  0  0  0  0  0  0  0  0  0  0
   22.1795  -12.5625  -14.8830 O   0  0  0  0  0  0  0  0  0  0  0  0
   20.5263  -12.7928  -16.3810 O   0  0  0  0  0  0  0  0  0  0  0  0
  1  2  1  0
  3  2  1  0
  3  4  2  0
  6  5  1  1
  6  8  1  0
  7  6  1  0
  8  9  1  6
  8 10  1  0
  9  3  1  0
 10 11  2  0
 13 14  2  0
 13 12  1  0
 15 13  1  0
 16 15  1  0
 17 16  1  1
 18 10  1  0
 18 17  1  0
 19 21  1  0
 19 17  1  0
 20 19  2  0
M  END
$$$$
