ANS.pdb
     RDKit          3D

 20 19  0  0  1  0  0  0  0  0999 V2000
    8.0324  -12.2449   19.0171 C   0  0  0  0  0  0  0  0  0  0  0  0
    8.5504  -13.3901   18.1774 C   0  0  2  0  0  0  0  0  0  0  0  0
    7.4460  -13.8530   17.3752 N   0  0  0  0  0  0  0  0  0  0  0  0
    9.0965  -14.4877   18.9770 C   0  0  0  0  0  0  0  0  0  0  0  0
    8.3731  -15.5083   19.2066 O   0  0  0  0  0  0  0  0  0  0  0  0
   13.4622  -14.0073   18.9273 N   0  0  0  0  0  0  0  0  0  0  0  0
   13.2472  -15.0214   19.8966 C   0  0  0  0  0  0  0  0  0  0  0  0
   13.9519  -14.9824   20.9444 O   0  0  0  0  0  0  0  0  0  0  0  0
   12.2596  -16.0945   19.7473 C   0  0  0  0  0  0  0  0  0  0  0  0
   10.8894  -15.7007   20.2582 C   0  0  2  0  0  0  0  0  0  0  0  0
   10.4023  -14.5380   19.5463 N   0  0  0  0  0  0  0  0  0  0  0  0
   10.9306  -15.4772   21.7234 C   0  0  0  0  0  0  0  0  0  0  0  0
   11.4236  -14.4112   22.1704 O   0  0  0  0  0  0  0  0  0  0  0  0
    8.2238  -16.9167   24.1231 O   0  0  0  0  0  0  0  0  0  0  0  0
    9.0836  -15.9192   24.5840 C   0  0  0  0  0  0  0  0  0  0  0  0
   10.4860  -16.2399   24.1037 C   0  0  2  0  0  0  0  0  0  0  0  0
   10.4367  -16.4177   22.6676 N   0  0  0  0  0  0  0  0  0  0  0  0
   11.0197  -17.4547   24.7435 C   0  0  0  0  0  0  0  0  0  0  0  0
   11.2127  -18.4741   24.0602 O   0  0  0  0  0  0  0  0  0  0  0  0
   11.2990  -17.4476   26.0896 O   0  0  0  0  0  0  0  0  0  0  0  0
  2  1  1  1
  2  4  1  0
  2  3  1  0
  4  5  2  0
  6  7  1  0
  7  9  1  0
  8  7  2  0
 10  9  1  6
 11  4  1  0
 11 10  1  0
 12 10  1  0
 12 13  2  0
 14 15  1  0
 16 15  1  1
 16 17  1  0
 16 18  1  0
 17 12  1  0
 18 20  1  0
 19 18  2  0
M  END
$$$$
