ANS.pdb
     RDKit          3D

 20 19  0  0  1  0  0  0  0  0999 V2000
   11.0176  -23.4792   22.8514 C   0  0  0  0  0  0  0  0  0  0  0  0
   11.0242  -24.2113   24.1738 C   0  0  2  0  0  0  0  0  0  0  0  0
    9.6619  -24.5961   24.4453 N   0  0  0  0  0  0  0  0  0  0  0  0
   11.5564  -23.4056   25.2738 C   0  0  0  0  0  0  0  0  0  0  0  0
   12.8156  -23.2714   25.3924 O   0  0  0  0  0  0  0  0  0  0  0  0
   10.6611  -19.3682   29.6304 N   0  0  0  0  0  0  0  0  0  0  0  0
   11.2055  -19.6502   28.3504 C   0  0  0  0  0  0  0  0  0  0  0  0
   12.2742  -19.0574   28.0303 O   0  0  0  0  0  0  0  0  0  0  0  0
   10.6012  -20.5847   27.3962 C   0  0  0  0  0  0  0  0  0  0  0  0
   11.3911  -21.8695   27.2589 C   0  0  2  0  0  0  0  0  0  0  0  0
   10.7855  -22.7282   26.2631 N   0  0  0  0  0  0  0  0  0  0  0  0
   11.5108  -22.5437   28.5741 C   0  0  0  0  0  0  0  0  0  0  0  0
   10.4837  -23.0243   29.1158 O   0  0  0  0  0  0  0  0  0  0  0  0
   13.3229  -25.4478   29.5143 O   0  0  0  0  0  0  0  0  0  0  0  0
   13.8995  -24.4844   30.3427 C   0  0  0  0  0  0  0  0  0  0  0  0
   12.8981  -23.3619   30.5364 C   0  0  2  0  0  0  0  0  0  0  0  0
   12.7428  -22.6781   29.2697 N   0  0  0  0  0  0  0  0  0  0  0  0
   13.3357  -22.4103   31.5722 C   0  0  0  0  0  0  0  0  0  0  0  0
   13.5062  -22.8067   32.7373 O   0  0  0  0  0  0  0  0  0  0  0  0
   13.5511  -21.0940   31.2390 O   0  0  0  0  0  0  0  0  0  0  0  0
  2  1  1  6
  2  4  1  0
  2  3  1  0
  4  5  2  0
  6  7  1  0
  7  9  1  0
  8  7  2  0
 10  9  1  1
 11  4  1  0
 11 10  1  0
 12 10  1  0
 12 13  2  0
 14 15  1  0
 16 15  1  6
 16 17  1  0
 16 18  1  0
 17 12  1  0
 18 20  1  0
 19 18  2  0
M  END
$$$$
