ANS.pdb
     RDKit          3D

 20 19  0  0  1  0  0  0  0  0999 V2000
    7.9708  -19.5143   17.6497 C   0  0  0  0  0  0  0  0  0  0  0  0
    8.2279  -18.0451   17.4043 C   0  0  2  0  0  0  0  0  0  0  0  0
    9.0875  -17.9583   16.2505 N   0  0  0  0  0  0  0  0  0  0  0  0
    8.8402  -17.3699   18.5495 C   0  0  0  0  0  0  0  0  0  0  0  0
   10.0732  -17.5606   18.7964 O   0  0  0  0  0  0  0  0  0  0  0  0
    7.0418  -12.7557   19.6792 N   0  0  0  0  0  0  0  0  0  0  0  0
    8.1645  -13.5437   20.0437 C   0  0  0  0  0  0  0  0  0  0  0  0
    9.2666  -13.2775   19.4866 O   0  0  0  0  0  0  0  0  0  0  0  0
    8.1114  -14.6329   21.0235 C   0  0  0  0  0  0  0  0  0  0  0  0
    8.8623  -15.8659   20.5656 C   0  0  2  0  0  0  0  0  0  0  0  0
    8.1779  -16.4866   19.4512 N   0  0  0  0  0  0  0  0  0  0  0  0
    9.0468  -16.8063   21.6970 C   0  0  0  0  0  0  0  0  0  0  0  0
    8.0534  -17.4305   22.1475 O   0  0  0  0  0  0  0  0  0  0  0  0
   12.1007  -19.0468   21.9505 O   0  0  0  0  0  0  0  0  0  0  0  0
   11.9465  -18.5295   23.2371 C   0  0  0  0  0  0  0  0  0  0  0  0
   10.5299  -18.0049   23.3729 C   0  0  2  0  0  0  0  0  0  0  0  0
   10.3053  -17.0449   22.3126 N   0  0  0  0  0  0  0  0  0  0  0  0
   10.3040  -17.3704   24.6830 C   0  0  0  0  0  0  0  0  0  0  0  0
   10.0051  -16.1658   24.7382 O   0  0  0  0  0  0  0  0  0  0  0  0
   10.4257  -18.1177   25.8305 O   0  0  0  0  0  0  0  0  0  0  0  0
  2  1  1  1
  2  4  1  0
  2  3  1  0
  4  5  2  0
  6  7  1  0
  7  9  1  0
  8  7  2  0
 10  9  1  1
 11  4  1  0
 11 10  1  0
 12 10  1  0
 12 13  2  0
 14 15  1  0
 16 15  1  1
 16 17  1  0
 16 18  1  0
 17 12  1  0
 18 20  1  0
 19 18  2  0
M  END
$$$$
