ANS.pdb
     RDKit          3D

 20 19  0  0  1  0  0  0  0  0999 V2000
    7.5542  -12.4328   18.6591 C   0  0  0  0  0  0  0  0  0  0  0  0
    8.5409  -13.5344   18.3465 C   0  0  2  0  0  0  0  0  0  0  0  0
    7.7813  -14.7532   18.2231 N   0  0  0  0  0  0  0  0  0  0  0  0
    9.5803  -13.6812   19.3665 C   0  0  0  0  0  0  0  0  0  0  0  0
   10.4358  -12.7525   19.5192 O   0  0  0  0  0  0  0  0  0  0  0  0
    8.6943  -14.1419   22.7983 N   0  0  0  0  0  0  0  0  0  0  0  0
    9.4008  -15.3381   23.0889 C   0  0  0  0  0  0  0  0  0  0  0  0
    9.0202  -16.0091   24.0893 O   0  0  0  0  0  0  0  0  0  0  0  0
   10.5312  -15.8295   22.2954 C   0  0  0  0  0  0  0  0  0  0  0  0
   10.8722  -14.9144   21.1377 C   0  0  2  0  0  0  0  0  0  0  0  0
    9.7418  -14.7949   20.2413 N   0  0  0  0  0  0  0  0  0  0  0  0
   12.0863  -15.3994   20.4382 C   0  0  0  0  0  0  0  0  0  0  0  0
   12.0335  -16.4706   19.7833 O   0  0  0  0  0  0  0  0  0  0  0  0
   14.2527  -14.2076   17.7484 O   0  0  0  0  0  0  0  0  0  0  0  0
   15.0487  -14.1515   18.8929 C   0  0  0  0  0  0  0  0  0  0  0  0
   14.5525  -15.2001   19.8699 C   0  0  2  0  0  0  0  0  0  0  0  0
   13.3287  -14.7098   20.4683 N   0  0  0  0  0  0  0  0  0  0  0  0
   15.5468  -15.4857   20.9186 C   0  0  0  0  0  0  0  0  0  0  0  0
   15.2565  -15.2867   22.1101 O   0  0  0  0  0  0  0  0  0  0  0  0
   16.7849  -15.9696   20.5683 O   0  0  0  0  0  0  0  0  0  0  0  0
  2  1  1  1
  2  4  1  0
  2  3  1  0
  4  5  2  0
  6  7  1  0
  7  9  1  0
  8  7  2  0
 10  9  1  1
 11  4  1  0
 11 10  1  0
 12 10  1  0
 12 13  2  0
 14 15  1  0
 16 15  1  6
 16 17  1  0
 16 18  1  0
 17 12  1  0
 18 20  1  0
 19 18  2  0
M  END
$$$$
