ANS.pdb
     RDKit          3D

 20 19  0  0  1  0  0  0  0  0999 V2000
    8.1384  -12.2848   19.1929 C   0  0  0  0  0  0  0  0  0  0  0  0
    8.3757  -13.6489   18.5865 C   0  0  2  0  0  0  0  0  0  0  0  0
    7.1455  -14.0412   17.9458 N   0  0  0  0  0  0  0  0  0  0  0  0
    8.7816  -14.6528   19.5713 C   0  0  0  0  0  0  0  0  0  0  0  0
    7.8891  -15.3430   20.1583 O   0  0  0  0  0  0  0  0  0  0  0  0
   12.0796  -19.1920   20.7581 N   0  0  0  0  0  0  0  0  0  0  0  0
   12.1082  -17.8552   21.2340 C   0  0  0  0  0  0  0  0  0  0  0  0
   12.4616  -17.6729   22.4331 O   0  0  0  0  0  0  0  0  0  0  0  0
   11.7575  -16.6914   20.4145 C   0  0  0  0  0  0  0  0  0  0  0  0
   10.4433  -16.0623   20.8279 C   0  0  2  0  0  0  0  0  0  0  0  0
   10.1209  -14.9522   19.9564 N   0  0  0  0  0  0  0  0  0  0  0  0
   10.4937  -15.6531   22.2523 C   0  0  0  0  0  0  0  0  0  0  0  0
   11.3563  -14.8179   22.6232 O   0  0  0  0  0  0  0  0  0  0  0  0
    7.3180  -16.2366   24.6602 O   0  0  0  0  0  0  0  0  0  0  0  0
    8.2612  -15.2709   25.0133 C   0  0  0  0  0  0  0  0  0  0  0  0
    9.6364  -15.7889   24.6380 C   0  0  2  0  0  0  0  0  0  0  0  0
    9.6069  -16.1622   23.2394 N   0  0  0  0  0  0  0  0  0  0  0  0
   10.0289  -16.9465   25.4601 C   0  0  0  0  0  0  0  0  0  0  0  0
   10.1199  -16.8213   26.6928 O   0  0  0  0  0  0  0  0  0  0  0  0
   10.2897  -18.1531   24.8550 O   0  0  0  0  0  0  0  0  0  0  0  0
  2  1  1  1
  2  4  1  0
  2  3  1  0
  4  5  2  0
  6  7  1  0
  7  9  1  0
  8  7  2  0
 10  9  1  6
 11  4  1  0
 11 10  1  0
 12 10  1  0
 12 13  2  0
 14 15  1  0
 16 15  1  1
 16 17  1  0
 16 18  1  0
 17 12  1  0
 18 20  1  0
 19 18  2  0
M  END
$$$$
