ANS.pdb
     RDKit          3D

 20 19  0  0  1  0  0  0  0  0999 V2000
    7.6691  -12.5040   19.0027 C   0  0  0  0  0  0  0  0  0  0  0  0
    8.3794  -13.5156   18.1326 C   0  0  2  0  0  0  0  0  0  0  0  0
    7.5196  -13.7739   17.0050 N   0  0  0  0  0  0  0  0  0  0  0  0
    8.6885  -14.7617   18.8355 C   0  0  0  0  0  0  0  0  0  0  0  0
    8.4193  -15.8725   18.2776 O   0  0  0  0  0  0  0  0  0  0  0  0
   12.2588  -18.7681   19.8804 N   0  0  0  0  0  0  0  0  0  0  0  0
   10.9763  -18.2041   20.1073 C   0  0  0  0  0  0  0  0  0  0  0  0
   10.1379  -18.9041   20.7421 O   0  0  0  0  0  0  0  0  0  0  0  0
   10.5824  -16.8674   19.6522 C   0  0  0  0  0  0  0  0  0  0  0  0
    9.7321  -16.1331   20.6678 C   0  0  2  0  0  0  0  0  0  0  0  0
    9.2829  -14.8677   20.1268 N   0  0  0  0  0  0  0  0  0  0  0  0
   10.4796  -15.9601   21.9366 C   0  0  0  0  0  0  0  0  0  0  0  0
   11.6372  -15.4719   21.9080 O   0  0  0  0  0  0  0  0  0  0  0  0
    8.4438  -16.4145   25.3670 O   0  0  0  0  0  0  0  0  0  0  0  0
    9.5364  -15.5497   25.4374 C   0  0  0  0  0  0  0  0  0  0  0  0
   10.5967  -16.0423   24.4713 C   0  0  2  0  0  0  0  0  0  0  0  0
    9.9522  -16.3229   23.2055 N   0  0  0  0  0  0  0  0  0  0  0  0
   11.2735  -17.2517   24.9708 C   0  0  0  0  0  0  0  0  0  0  0  0
   11.9107  -17.2027   26.0362 O   0  0  0  0  0  0  0  0  0  0  0  0
   11.1926  -18.4216   24.2534 O   0  0  0  0  0  0  0  0  0  0  0  0
  2  1  1  1
  2  4  1  0
  2  3  1  0
  4  5  2  0
  6  7  1  0
  7  9  1  0
  8  7  2  0
 10  9  1  6
 11  4  1  0
 11 10  1  0
 12 10  1  0
 12 13  2  0
 14 15  1  0
 16 15  1  1
 16 17  1  0
 16 18  1  0
 17 12  1  0
 18 20  1  0
 19 18  2  0
M  END
$$$$
