CKM.pdb
     RDKit          3D

 24 23  0  0  1  0  0  0  0  0999 V2000
   18.8178  -22.0682  -18.5445 N   0  0  0  0  0  0  0  0  0  0  0  0
   18.4770  -21.5538  -17.2235 C   0  0  1  0  0  0  0  0  0  0  0  0
   16.9894  -21.3772  -17.0925 C   0  0  0  0  0  0  0  0  0  0  0  0
   16.5620  -19.8092  -17.9054 S   0  0  0  0  0  0  0  0  0  0  0  0
   19.0059  -22.5578  -16.2364 C   0  0  0  0  0  0  0  0  0  0  0  0
   18.5162  -23.7345  -16.3517 O   0  0  0  0  0  0  0  0  0  0  0  0
   19.9597  -22.2387  -15.2639 N   0  0  0  0  0  0  0  0  0  0  0  0
   20.4045  -23.2708  -14.3371 C   0  0  1  0  0  0  0  0  0  0  0  0
   21.7756  -22.9727  -13.8381 C   0  0  0  0  0  0  0  0  0  0  0  0
   22.8189  -23.1629  -14.8926 C   0  0  0  0  0  0  0  0  0  0  0  0
   24.2050  -22.8555  -14.3048 C   0  0  0  0  0  0  0  0  0  0  0  0
   25.1915  -22.9499  -15.4483 C   0  0  0  0  0  0  0  0  0  0  0  0
   26.4994  -22.6098  -14.9218 N   0  0  0  0  0  0  0  0  0  0  0  0
   19.4622  -23.4606  -13.2442 C   0  0  0  0  0  0  0  0  0  0  0  0
   18.9703  -22.5081  -12.6258 O   0  0  0  0  0  0  0  0  0  0  0  0
   14.0496  -26.1330  -13.4024 C   0  0  0  0  0  0  0  0  0  0  0  0
   14.6834  -27.1335  -12.0148 S   0  0  0  0  0  0  0  0  0  0  0  0
   16.0458  -26.1857  -11.2506 C   0  0  0  0  0  0  0  0  0  0  0  0
   17.0507  -25.8766  -12.3292 C   0  0  0  0  0  0  0  0  0  0  0  0
   18.1654  -25.0631  -11.7627 C   0  0  2  0  0  0  0  0  0  0  0  0
   19.0931  -24.7979  -12.8728 N   0  0  0  0  0  0  0  0  0  0  0  0
   18.9395  -25.7099  -10.6905 C   0  0  0  0  0  0  0  0  0  0  0  0
   18.5757  -25.7281   -9.3649 O   0  0  0  0  0  0  0  0  0  0  0  0
   20.0347  -26.3083  -10.9622 O   0  0  0  0  0  0  0  0  0  0  0  0
  2  1  1  6
  3  2  1  0
  4  3  1  0
  5  6  2  0
  5  2  1  0
  7  5  1  0
  8  7  1  0
  8  9  1  1
  9 10  1  0
 11 10  1  0
 12 11  1  0
 12 13  1  0
 14  8  1  0
 15 14  2  0
 17 16  1  0
 18 17  1  0
 19 18  1  0
 20 19  1  6
 20 22  1  0
 20 21  1  0
 21 14  1  0
 22 23  1  0
 24 22  2  0
M  END
$$$$
