CKM.pdb
     RDKit          3D

 24 23  0  0  1  0  0  0  0  0999 V2000
   25.0731  -19.3211  -17.4837 N   0  0  0  0  0  0  0  0  0  0  0  0
   24.3292  -18.0675  -17.5125 C   0  0  1  0  0  0  0  0  0  0  0  0
   24.0652  -17.6418  -18.9304 C   0  0  0  0  0  0  0  0  0  0  0  0
   25.6586  -17.1389  -19.6446 S   0  0  0  0  0  0  0  0  0  0  0  0
   23.0508  -18.3246  -16.7629 C   0  0  0  0  0  0  0  0  0  0  0  0
   22.6165  -19.5261  -16.8368 O   0  0  0  0  0  0  0  0  0  0  0  0
   22.3813  -17.3327  -16.0382 N   0  0  0  0  0  0  0  0  0  0  0  0
   21.0948  -17.6419  -15.4287 C   0  0  1  0  0  0  0  0  0  0  0  0
   20.7886  -16.6809  -14.3330 C   0  0  0  0  0  0  0  0  0  0  0  0
   19.4418  -16.9182  -13.7277 C   0  0  0  0  0  0  0  0  0  0  0  0
   19.4975  -18.1575  -12.8210 C   0  0  0  0  0  0  0  0  0  0  0  0
   18.1246  -18.3038  -12.2019 C   0  0  0  0  0  0  0  0  0  0  0  0
   18.1648  -19.4590  -11.3258 N   0  0  0  0  0  0  0  0  0  0  0  0
   20.0261  -17.6935  -16.4153 C   0  0  0  0  0  0  0  0  0  0  0  0
   19.8389  -16.7825  -17.2318 O   0  0  0  0  0  0  0  0  0  0  0  0
   18.5133  -22.5809  -20.0524 C   0  0  0  0  0  0  0  0  0  0  0  0
   16.8601  -22.2987  -19.3345 S   0  0  0  0  0  0  0  0  0  0  0  0
   16.8169  -20.5660  -18.7562 C   0  0  0  0  0  0  0  0  0  0  0  0
   17.9751  -20.3681  -17.8139 C   0  0  0  0  0  0  0  0  0  0  0  0
   18.0389  -18.9408  -17.3849 C   0  0  2  0  0  0  0  0  0  0  0  0
   19.1613  -18.8399  -16.4398 N   0  0  0  0  0  0  0  0  0  0  0  0
   16.8407  -18.4325  -16.6971 C   0  0  0  0  0  0  0  0  0  0  0  0
   15.7370  -17.9119  -17.3303 O   0  0  0  0  0  0  0  0  0  0  0  0
   16.7759  -18.4547  -15.4217 O   0  0  0  0  0  0  0  0  0  0  0  0
  2  1  1  6
  3  2  1  0
  4  3  1  0
  5  6  2  0
  5  2  1  0
  7  5  1  0
  8  7  1  0
  8  9  1  1
  9 10  1  0
 11 10  1  0
 12 11  1  0
 12 13  1  0
 14  8  1  0
 15 14  2  0
 17 16  1  0
 18 17  1  0
 19 18  1  0
 20 19  1  1
 20 22  1  0
 20 21  1  0
 21 14  1  0
 22 23  1  0
 24 22  2  0
M  END
$$$$
