CKM.pdb
     RDKit          3D

 24 23  0  0  1  0  0  0  0  0999 V2000
   29.4512  -21.8346  -17.1567 N   0  0  0  0  0  0  0  0  0  0  0  0
   28.0498  -21.4323  -17.1443 C   0  0  1  0  0  0  0  0  0  0  0  0
   27.1549  -22.6282  -17.3185 C   0  0  0  0  0  0  0  0  0  0  0  0
   26.8720  -23.3311  -15.6668 S   0  0  0  0  0  0  0  0  0  0  0  0
   27.8221  -20.7568  -15.8199 C   0  0  0  0  0  0  0  0  0  0  0  0
   28.7650  -20.9111  -14.9685 O   0  0  0  0  0  0  0  0  0  0  0  0
   26.6713  -20.0149  -15.5322 N   0  0  0  0  0  0  0  0  0  0  0  0
   26.5610  -19.3424  -14.2448 C   0  0  1  0  0  0  0  0  0  0  0  0
   25.8295  -18.0531  -14.3872 C   0  0  0  0  0  0  0  0  0  0  0  0
   26.7102  -16.9506  -14.8825 C   0  0  0  0  0  0  0  0  0  0  0  0
   26.2446  -16.5096  -16.2790 C   0  0  0  0  0  0  0  0  0  0  0  0
   27.2197  -15.4513  -16.7469 C   0  0  0  0  0  0  0  0  0  0  0  0
   26.8070  -15.0381  -18.0745 N   0  0  0  0  0  0  0  0  0  0  0  0
   25.9541  -20.1984  -13.2363 C   0  0  0  0  0  0  0  0  0  0  0  0
   25.1723  -21.1113  -13.5312 O   0  0  0  0  0  0  0  0  0  0  0  0
   27.7124  -19.2409   -7.2955 C   0  0  0  0  0  0  0  0  0  0  0  0
   26.3081  -20.2951   -6.8011 S   0  0  0  0  0  0  0  0  0  0  0  0
   25.5688  -20.9554   -8.3361 C   0  0  0  0  0  0  0  0  0  0  0  0
   26.2094  -20.2417   -9.4975 C   0  0  0  0  0  0  0  0  0  0  0  0
   25.6538  -20.7637  -10.7797 C   0  0  2  0  0  0  0  0  0  0  0  0
   26.2741  -19.9741  -11.8543 N   0  0  0  0  0  0  0  0  0  0  0  0
   24.1948  -20.6419  -10.9334 C   0  0  0  0  0  0  0  0  0  0  0  0
   23.5571  -19.5800  -11.5298 O   0  0  0  0  0  0  0  0  0  0  0  0
   23.4251  -21.5625  -10.4959 O   0  0  0  0  0  0  0  0  0  0  0  0
  2  1  1  1
  3  2  1  0
  4  3  1  0
  5  6  2  0
  5  2  1  0
  7  5  1  0
  8  7  1  0
  8  9  1  6
  9 10  1  0
 11 10  1  0
 12 11  1  0
 12 13  1  0
 14  8  1  0
 15 14  2  0
 17 16  1  0
 18 17  1  0
 19 18  1  0
 20 19  1  1
 20 22  1  0
 20 21  1  0
 21 14  1  0
 22 23  1  0
 24 22  2  0
M  END
$$$$
