CKM.pdb
     RDKit          3D

 24 23  0  0  1  0  0  0  0  0999 V2000
   23.6765  -12.7532  -17.4239 N   0  0  0  0  0  0  0  0  0  0  0  0
   24.3843  -11.8178  -18.2899 C   0  0  1  0  0  0  0  0  0  0  0  0
   24.5873  -12.4123  -19.6561 C   0  0  0  0  0  0  0  0  0  0  0  0
   25.7934  -13.7602  -19.4803 S   0  0  0  0  0  0  0  0  0  0  0  0
   23.5355  -10.5774  -18.3448 C   0  0  0  0  0  0  0  0  0  0  0  0
   24.0454   -9.6057  -19.0033 O   0  0  0  0  0  0  0  0  0  0  0  0
   22.2839  -10.4840  -17.7264 N   0  0  0  0  0  0  0  0  0  0  0  0
   21.5497   -9.2276  -17.7912 C   0  0  1  0  0  0  0  0  0  0  0  0
   20.1128   -9.4420  -17.4638 C   0  0  0  0  0  0  0  0  0  0  0  0
   19.2923   -8.2084  -17.6678 C   0  0  0  0  0  0  0  0  0  0  0  0
   17.8237   -8.5065  -17.3279 C   0  0  0  0  0  0  0  0  0  0  0  0
   17.0428   -7.2482  -17.6383 C   0  0  0  0  0  0  0  0  0  0  0  0
   15.6866   -7.4520  -17.1664 N   0  0  0  0  0  0  0  0  0  0  0  0
   22.1488   -8.2054  -16.9460 C   0  0  0  0  0  0  0  0  0  0  0  0
   22.5440   -8.4480  -15.7986 O   0  0  0  0  0  0  0  0  0  0  0  0
   25.8963   -1.3500  -17.3578 C   0  0  0  0  0  0  0  0  0  0  0  0
   25.0409   -2.6971  -18.2417 S   0  0  0  0  0  0  0  0  0  0  0  0
   24.2984   -3.7823  -16.9730 C   0  0  0  0  0  0  0  0  0  0  0  0
   23.6025   -4.9119  -17.6861 C   0  0  0  0  0  0  0  0  0  0  0  0
   22.9455   -5.8085  -16.6913 C   0  0  2  0  0  0  0  0  0  0  0  0
   22.2843   -6.8721  -17.4624 N   0  0  0  0  0  0  0  0  0  0  0  0
   21.9176   -5.1744  -15.8496 C   0  0  0  0  0  0  0  0  0  0  0  0
   22.1287   -4.7113  -14.5726 O   0  0  0  0  0  0  0  0  0  0  0  0
   20.7296   -5.0230  -16.2937 O   0  0  0  0  0  0  0  0  0  0  0  0
  2  1  1  1
  3  2  1  0
  4  3  1  0
  5  6  2  0
  5  2  1  0
  7  5  1  0
  8  7  1  0
  8  9  1  1
  9 10  1  0
 11 10  1  0
 12 11  1  0
 12 13  1  0
 14  8  1  0
 15 14  2  0
 17 16  1  0
 18 17  1  0
 19 18  1  0
 20 19  1  6
 20 22  1  0
 20 21  1  0
 21 14  1  0
 22 23  1  0
 24 22  2  0
M  END
$$$$
