CKM.pdb
     RDKit          3D

 24 23  0  0  1  0  0  0  0  0999 V2000
   13.9631  -10.9941  -10.4461 N   0  0  0  0  0  0  0  0  0  0  0  0
   15.3584  -10.6174  -10.2533 C   0  0  1  0  0  0  0  0  0  0  0  0
   16.2265  -11.2474  -11.3072 C   0  0  0  0  0  0  0  0  0  0  0  0
   16.4463  -12.9919  -10.8481 S   0  0  0  0  0  0  0  0  0  0  0  0
   15.3982   -9.1157  -10.3260 C   0  0  0  0  0  0  0  0  0  0  0  0
   14.8357   -8.6123  -11.3594 O   0  0  0  0  0  0  0  0  0  0  0  0
   16.0017   -8.3223   -9.3442 N   0  0  0  0  0  0  0  0  0  0  0  0
   16.0184   -6.8751   -9.5093 C   0  0  1  0  0  0  0  0  0  0  0  0
   15.3799   -6.2063   -8.3419 C   0  0  0  0  0  0  0  0  0  0  0  0
   13.8887   -6.3167   -8.3681 C   0  0  0  0  0  0  0  0  0  0  0  0
   13.2861   -5.3852   -7.3048 C   0  0  0  0  0  0  0  0  0  0  0  0
   11.7831   -5.5281   -7.4049 C   0  0  0  0  0  0  0  0  0  0  0  0
   11.1971   -4.6583   -6.4030 N   0  0  0  0  0  0  0  0  0  0  0  0
   17.3628   -6.3724   -9.7500 C   0  0  0  0  0  0  0  0  0  0  0  0
   18.1949   -6.2559   -8.8413 O   0  0  0  0  0  0  0  0  0  0  0  0
   22.4841   -9.1430  -12.1158 C   0  0  0  0  0  0  0  0  0  0  0  0
   20.6939   -9.1154  -12.4658 S   0  0  0  0  0  0  0  0  0  0  0  0
   19.9589   -7.8322  -11.3926 C   0  0  0  0  0  0  0  0  0  0  0  0
   19.7154   -6.6106  -12.2394 C   0  0  0  0  0  0  0  0  0  0  0  0
   19.0918   -5.5381  -11.4111 C   0  0  2  0  0  0  0  0  0  0  0  0
   17.7336   -5.9995  -11.0865 N   0  0  0  0  0  0  0  0  0  0  0  0
   18.9633   -4.2262  -12.0666 C   0  0  0  0  0  0  0  0  0  0  0  0
   17.7746   -3.6683  -12.4737 O   0  0  0  0  0  0  0  0  0  0  0  0
   20.0024   -3.5198  -12.2958 O   0  0  0  0  0  0  0  0  0  0  0  0
  2  1  1  6
  3  2  1  0
  4  3  1  0
  5  6  2  0
  5  2  1  0
  7  5  1  0
  8  7  1  0
  8  9  1  1
  9 10  1  0
 11 10  1  0
 12 11  1  0
 12 13  1  0
 14  8  1  0
 15 14  2  0
 17 16  1  0
 18 17  1  0
 19 18  1  0
 20 19  1  6
 20 22  1  0
 20 21  1  0
 21 14  1  0
 22 23  1  0
 24 22  2  0
M  END
$$$$
