CKM.pdb
     RDKit          3D

 24 23  0  0  1  0  0  0  0  0999 V2000
   24.0128  -16.9476  -20.6039 N   0  0  0  0  0  0  0  0  0  0  0  0
   23.8006  -15.6069  -20.0715 C   0  0  1  0  0  0  0  0  0  0  0  0
   24.2578  -14.5679  -21.0577 C   0  0  0  0  0  0  0  0  0  0  0  0
   24.0046  -12.9443  -20.2819 S   0  0  0  0  0  0  0  0  0  0  0  0
   22.3266  -15.4978  -19.7933 C   0  0  0  0  0  0  0  0  0  0  0  0
   21.6039  -15.2392  -20.8173 O   0  0  0  0  0  0  0  0  0  0  0  0
   21.7789  -15.6645  -18.5167 N   0  0  0  0  0  0  0  0  0  0  0  0
   20.3575  -15.4191  -18.3140 C   0  0  1  0  0  0  0  0  0  0  0  0
   19.8090  -16.3368  -17.2774 C   0  0  0  0  0  0  0  0  0  0  0  0
   18.3162  -16.2845  -17.2032 C   0  0  0  0  0  0  0  0  0  0  0  0
   17.8232  -17.2361  -16.1020 C   0  0  0  0  0  0  0  0  0  0  0  0
   16.3184  -17.3152  -16.2391 C   0  0  0  0  0  0  0  0  0  0  0  0
   15.8502  -18.3214  -15.3053 N   0  0  0  0  0  0  0  0  0  0  0  0
   20.0880  -14.0244  -17.9967 C   0  0  0  0  0  0  0  0  0  0  0  0
   20.7556  -13.3975  -17.1643 O   0  0  0  0  0  0  0  0  0  0  0  0
   17.4772   -7.4642  -21.2091 C   0  0  0  0  0  0  0  0  0  0  0  0
   17.8458   -9.2433  -21.3741 S   0  0  0  0  0  0  0  0  0  0  0  0
   18.1793   -9.8783  -19.6936 C   0  0  0  0  0  0  0  0  0  0  0  0
   18.5761  -11.3258  -19.8209 C   0  0  0  0  0  0  0  0  0  0  0  0
   18.7381  -11.9261  -18.4649 C   0  0  2  0  0  0  0  0  0  0  0  0
   19.0114  -13.3562  -18.6727 N   0  0  0  0  0  0  0  0  0  0  0  0
   17.5619  -11.8286  -17.5849 C   0  0  0  0  0  0  0  0  0  0  0  0
   17.2833  -10.7592  -16.7672 O   0  0  0  0  0  0  0  0  0  0  0  0
   16.7121  -12.7812  -17.5431 O   0  0  0  0  0  0  0  0  0  0  0  0
  2  1  1  6
  3  2  1  0
  4  3  1  0
  5  6  2  0
  5  2  1  0
  7  5  1  0
  8  7  1  0
  8  9  1  1
  9 10  1  0
 11 10  1  0
 12 11  1  0
 12 13  1  0
 14  8  1  0
 15 14  2  0
 17 16  1  0
 18 17  1  0
 19 18  1  0
 20 19  1  6
 20 22  1  0
 20 21  1  0
 21 14  1  0
 22 23  1  0
 24 22  2  0
M  END
$$$$
