TTF.pdb
     RDKit          3D

 26 26  0  0  1  0  0  0  0  0999 V2000
   27.0747  -11.2515  -17.9943 C   0  0  0  0  0  0  0  0  0  0  0  0
   28.4640  -10.7569  -18.1820 C   0  0  1  0  0  0  0  0  0  0  0  0
   29.2272  -11.7467  -18.7952 O   0  0  0  0  0  0  0  0  0  0  0  0
   28.5572   -9.5166  -19.0455 C   0  0  2  0  0  0  0  0  0  0  0  0
   29.9237   -9.0467  -19.1574 N   0  0  0  0  0  0  0  0  0  0  0  0
   27.7116   -8.4598  -18.4394 C   0  0  0  0  0  0  0  0  0  0  0  0
   28.0974   -7.7570  -17.4629 O   0  0  0  0  0  0  0  0  0  0  0  0
   26.3309   -5.5649  -20.1775 C   0  0  0  0  0  0  0  0  0  0  0  0
   25.1141   -6.1955  -19.5334 C   0  0  1  0  0  0  0  0  0  0  0  0
   24.4008   -6.8287  -20.5283 O   0  0  0  0  0  0  0  0  0  0  0  0
   25.5650   -7.1532  -18.4499 C   0  0  2  0  0  0  0  0  0  0  0  0
   26.4093   -8.1942  -18.9460 N   0  0  0  0  0  0  0  0  0  0  0  0
   24.4187   -7.6733  -17.6689 C   0  0  0  0  0  0  0  0  0  0  0  0
   23.9172   -8.7739  -17.9446 O   0  0  0  0  0  0  0  0  0  0  0  0
   23.8816   -6.9205  -16.5984 N   0  0  0  0  0  0  0  0  0  0  0  0
   22.7733   -7.3961  -15.7692 C   0  0  1  0  0  0  0  0  0  0  0  0
   23.1641   -7.4693  -14.3290 C   0  0  0  0  0  0  0  0  0  0  0  0
   22.0971   -7.9864  -13.4835 C   0  0  0  0  0  0  0  0  0  0  0  0
   21.1061   -7.1432  -12.9696 C   0  0  0  0  0  0  0  0  0  0  0  0
   20.0867   -7.6293  -12.1832 C   0  0  0  0  0  0  0  0  0  0  0  0
   20.0008   -8.9630  -11.8707 C   0  0  0  0  0  0  0  0  0  0  0  0
   20.9717   -9.8293  -12.3664 C   0  0  0  0  0  0  0  0  0  0  0  0
   21.9847   -9.3223  -13.1526 C   0  0  0  0  0  0  0  0  0  0  0  0
   21.5640   -6.5954  -15.9698 C   0  0  0  0  0  0  0  0  0  0  0  0
   20.2751   -7.0541  -16.0891 O   0  0  0  0  0  0  0  0  0  0  0  0
   21.7136   -5.3253  -16.0451 O   0  0  0  0  0  0  0  0  0  0  0  0
  2  1  1  6
  2  3  1  0
  2  4  1  0
  4  6  1  0
  4  5  1  1
  6  7  2  0
  9 11  1  0
  9  8  1  6
 10  9  1  0
 11 12  1  6
 12  6  1  0
 13 14  2  0
 13 11  1  0
 15 13  1  0
 16 24  1  0
 16 15  1  0
 16 17  1  1
 18 17  1  0
 19 18  2  0
 20 19  1  0
 21 20  2  0
 21 22  1  0
 22 23  2  0
 23 18  1  0
 24 25  1  0
 26 24  2  0
M  END
$$$$
