TTF.pdb
     RDKit          3D

 26 26  0  0  1  0  0  0  0  0999 V2000
   27.3072  -15.8146  -13.7803 C   0  0  0  0  0  0  0  0  0  0  0  0
   26.2495  -15.8655  -14.8238 C   0  0  1  0  0  0  0  0  0  0  0  0
   26.5684  -14.9776  -15.8476 O   0  0  0  0  0  0  0  0  0  0  0  0
   26.0781  -17.2331  -15.4507 C   0  0  2  0  0  0  0  0  0  0  0  0
   25.1023  -17.2097  -16.5221 N   0  0  0  0  0  0  0  0  0  0  0  0
   25.6423  -18.1800  -14.3960 C   0  0  0  0  0  0  0  0  0  0  0  0
   24.4418  -18.2638  -14.0113 O   0  0  0  0  0  0  0  0  0  0  0  0
   25.8333  -22.4590  -12.3995 C   0  0  0  0  0  0  0  0  0  0  0  0
   26.4739  -21.4587  -13.3388 C   0  0  1  0  0  0  0  0  0  0  0  0
   25.9383  -21.6659  -14.5916 O   0  0  0  0  0  0  0  0  0  0  0  0
   26.2133  -20.0574  -12.8260 C   0  0  2  0  0  0  0  0  0  0  0  0
   26.5793  -19.0456  -13.7668 N   0  0  0  0  0  0  0  0  0  0  0  0
   26.8213  -19.8418  -11.4925 C   0  0  0  0  0  0  0  0  0  0  0  0
   28.0385  -19.6288  -11.3831 O   0  0  0  0  0  0  0  0  0  0  0  0
   26.0206  -19.8764  -10.3268 N   0  0  0  0  0  0  0  0  0  0  0  0
   26.5697  -20.1178   -8.9918 C   0  0  1  0  0  0  0  0  0  0  0  0
   26.2537  -18.9919   -8.0620 C   0  0  0  0  0  0  0  0  0  0  0  0
   26.9561  -19.0998   -6.7908 C   0  0  0  0  0  0  0  0  0  0  0  0
   28.1041  -18.3440   -6.5303 C   0  0  0  0  0  0  0  0  0  0  0  0
   28.7624  -18.4304   -5.3249 C   0  0  0  0  0  0  0  0  0  0  0  0
   28.3188  -19.2629   -4.3279 C   0  0  0  0  0  0  0  0  0  0  0  0
   27.1786  -20.0291   -4.5552 C   0  0  0  0  0  0  0  0  0  0  0  0
   26.5335  -19.9278   -5.7698 C   0  0  0  0  0  0  0  0  0  0  0  0
   26.1398  -21.4104   -8.4547 C   0  0  0  0  0  0  0  0  0  0  0  0
   24.8636  -21.9171   -8.4329 O   0  0  0  0  0  0  0  0  0  0  0  0
   27.0462  -22.1586   -7.9452 O   0  0  0  0  0  0  0  0  0  0  0  0
  2  1  1  1
  2  3  1  0
  2  4  1  0
  4  6  1  0
  4  5  1  6
  6  7  2  0
  9 11  1  0
  9  8  1  1
 10  9  1  0
 11 12  1  6
 12  6  1  0
 13 14  2  0
 13 11  1  0
 15 13  1  0
 16 24  1  0
 16 15  1  0
 16 17  1  1
 18 17  1  0
 19 18  2  0
 20 19  1  0
 21 20  2  0
 21 22  1  0
 22 23  2  0
 23 18  1  0
 24 25  1  0
 26 24  2  0
M  END
$$$$
