TTF.pdb
     RDKit          3D

 26 26  0  0  1  0  0  0  0  0999 V2000
   24.4873  -21.7610  -18.7964 C   0  0  0  0  0  0  0  0  0  0  0  0
   25.0740  -21.9098  -17.4386 C   0  0  1  0  0  0  0  0  0  0  0  0
   24.7865  -23.1807  -16.9486 O   0  0  0  0  0  0  0  0  0  0  0  0
   26.5787  -21.7435  -17.4040 C   0  0  2  0  0  0  0  0  0  0  0  0
   27.2470  -22.7799  -18.1654 N   0  0  0  0  0  0  0  0  0  0  0  0
   27.0227  -21.7946  -15.9900 C   0  0  0  0  0  0  0  0  0  0  0  0
   27.6284  -22.7908  -15.5032 O   0  0  0  0  0  0  0  0  0  0  0  0
   29.2158  -19.3716  -14.2428 C   0  0  0  0  0  0  0  0  0  0  0  0
   27.9714  -19.4384  -13.3823 C   0  0  1  0  0  0  0  0  0  0  0  0
   27.2547  -18.2818  -13.6009 O   0  0  0  0  0  0  0  0  0  0  0  0
   27.1833  -20.6808  -13.7431 C   0  0  2  0  0  0  0  0  0  0  0  0
   26.7777  -20.7016  -15.1134 N   0  0  0  0  0  0  0  0  0  0  0  0
   26.0530  -20.9004  -12.8111 C   0  0  0  0  0  0  0  0  0  0  0  0
   24.8835  -20.7369  -13.1911 O   0  0  0  0  0  0  0  0  0  0  0  0
   26.2938  -21.2996  -11.4755 N   0  0  0  0  0  0  0  0  0  0  0  0
   25.2379  -21.3726  -10.4647 C   0  0  1  0  0  0  0  0  0  0  0  0
   25.7666  -21.8764   -9.1614 C   0  0  0  0  0  0  0  0  0  0  0  0
   26.6792  -20.9367   -8.5250 C   0  0  0  0  0  0  0  0  0  0  0  0
   26.2013  -19.8652   -7.7630 C   0  0  0  0  0  0  0  0  0  0  0  0
   27.0596  -18.9836   -7.1464 C   0  0  0  0  0  0  0  0  0  0  0  0
   28.4210  -19.1199   -7.2542 C   0  0  0  0  0  0  0  0  0  0  0  0
   28.9293  -20.1762   -8.0057 C   0  0  0  0  0  0  0  0  0  0  0  0
   28.0525  -21.0486   -8.6155 C   0  0  0  0  0  0  0  0  0  0  0  0
   24.5402  -20.0939  -10.3166 C   0  0  0  0  0  0  0  0  0  0  0  0
   25.0185  -18.8459  -10.6326 O   0  0  0  0  0  0  0  0  0  0  0  0
   23.3521  -20.1318   -9.8391 O   0  0  0  0  0  0  0  0  0  0  0  0
  2  1  1  6
  2  3  1  0
  2  4  1  0
  4  6  1  0
  4  5  1  6
  6  7  2  0
  9 11  1  0
  9  8  1  6
 10  9  1  0
 11 12  1  6
 12  6  1  0
 13 14  2  0
 13 11  1  0
 15 13  1  0
 16 24  1  0
 16 15  1  0
 16 17  1  1
 18 17  1  0
 19 18  2  0
 20 19  1  0
 21 20  2  0
 21 22  1  0
 22 23  2  0
 23 18  1  0
 24 25  1  0
 26 24  2  0
M  END
$$$$
