TTF.pdb
     RDKit          3D

 26 26  0  0  1  0  0  0  0  0999 V2000
   15.7087   -3.8156   -8.3675 C   0  0  0  0  0  0  0  0  0  0  0  0
   16.2193   -4.7712   -9.3853 C   0  0  1  0  0  0  0  0  0  0  0  0
   17.3988   -5.3495   -8.9245 O   0  0  0  0  0  0  0  0  0  0  0  0
   15.2577   -5.8981   -9.6989 C   0  0  2  0  0  0  0  0  0  0  0  0
   15.0006   -6.7192   -8.5326 N   0  0  0  0  0  0  0  0  0  0  0  0
   15.8460   -6.7288  -10.7773 C   0  0  0  0  0  0  0  0  0  0  0  0
   16.1847   -7.9330  -10.5999 O   0  0  0  0  0  0  0  0  0  0  0  0
   14.3451   -6.5308  -14.4038 C   0  0  0  0  0  0  0  0  0  0  0  0
   15.8553   -6.4806  -14.5039 C   0  0  1  0  0  0  0  0  0  0  0  0
   16.2081   -5.1786  -14.7860 O   0  0  0  0  0  0  0  0  0  0  0  0
   16.4566   -6.9709  -13.2029 C   0  0  2  0  0  0  0  0  0  0  0  0
   16.0544   -6.1886  -12.0765 N   0  0  0  0  0  0  0  0  0  0  0  0
   17.9278   -7.1140  -13.3008 C   0  0  0  0  0  0  0  0  0  0  0  0
   18.6775   -6.2698  -12.7868 O   0  0  0  0  0  0  0  0  0  0  0  0
   18.4960   -8.2158  -13.9823 N   0  0  0  0  0  0  0  0  0  0  0  0
   19.9398   -8.3921  -14.1442 C   0  0  1  0  0  0  0  0  0  0  0  0
   20.2703   -9.7728  -14.6093 C   0  0  0  0  0  0  0  0  0  0  0  0
   21.7024   -9.9834  -14.7693 C   0  0  0  0  0  0  0  0  0  0  0  0
   22.3258   -9.8146  -16.0103 C   0  0  0  0  0  0  0  0  0  0  0  0
   23.6812   -9.9969  -16.1636 C   0  0  0  0  0  0  0  0  0  0  0  0
   24.4776  -10.3522  -15.1036 C   0  0  0  0  0  0  0  0  0  0  0  0
   23.8881  -10.5281  -13.8545 C   0  0  0  0  0  0  0  0  0  0  0  0
   22.5284  -10.3406  -13.7220 C   0  0  0  0  0  0  0  0  0  0  0  0
   20.5166   -7.3665  -15.0157 C   0  0  0  0  0  0  0  0  0  0  0  0
   20.0104   -6.9099  -16.2078 O   0  0  0  0  0  0  0  0  0  0  0  0
   21.6156   -6.8303  -14.6340 O   0  0  0  0  0  0  0  0  0  0  0  0
  2  1  1  1
  2  3  1  0
  2  4  1  0
  4  6  1  0
  4  5  1  1
  6  7  2  0
  9 11  1  0
  9  8  1  1
 10  9  1  0
 11 12  1  1
 12  6  1  0
 13 14  2  0
 13 11  1  0
 15 13  1  0
 16 24  1  0
 16 15  1  0
 16 17  1  6
 18 17  1  0
 19 18  2  0
 20 19  1  0
 21 20  2  0
 21 22  1  0
 22 23  2  0
 23 18  1  0
 24 25  1  0
 26 24  2  0
M  END
$$$$
