TTF.pdb
     RDKit          3D

 26 26  0  0  1  0  0  0  0  0999 V2000
   23.6513  -16.6860  -20.4906 C   0  0  0  0  0  0  0  0  0  0  0  0
   25.0163  -17.0235  -20.9732 C   0  0  1  0  0  0  0  0  0  0  0  0
   25.2537  -16.3707  -22.1796 O   0  0  0  0  0  0  0  0  0  0  0  0
   26.1179  -16.6174  -20.0169 C   0  0  2  0  0  0  0  0  0  0  0  0
   27.4284  -16.9377  -20.5466 N   0  0  0  0  0  0  0  0  0  0  0  0
   25.9085  -17.3287  -18.7327 C   0  0  0  0  0  0  0  0  0  0  0  0
   26.2853  -18.5201  -18.5459 O   0  0  0  0  0  0  0  0  0  0  0  0
   26.7680  -16.2060  -15.1550 C   0  0  0  0  0  0  0  0  0  0  0  0
   25.2777  -16.4707  -15.1989 C   0  0  1  0  0  0  0  0  0  0  0  0
   24.6416  -15.2490  -15.2445 O   0  0  0  0  0  0  0  0  0  0  0  0
   24.9605  -17.3301  -16.4053 C   0  0  2  0  0  0  0  0  0  0  0  0
   25.2627  -16.6820  -17.6427 N   0  0  0  0  0  0  0  0  0  0  0  0
   23.5734  -17.8480  -16.3575 C   0  0  0  0  0  0  0  0  0  0  0  0
   22.6941  -17.3594  -17.0835 O   0  0  0  0  0  0  0  0  0  0  0  0
   23.2345  -18.9069  -15.4829 N   0  0  0  0  0  0  0  0  0  0  0  0
   21.8927  -19.4880  -15.4201 C   0  0  1  0  0  0  0  0  0  0  0  0
   21.8097  -20.7516  -16.2129 C   0  0  0  0  0  0  0  0  0  0  0  0
   22.7599  -21.7596  -15.7634 C   0  0  0  0  0  0  0  0  0  0  0  0
   22.4990  -22.5525  -14.6408 C   0  0  0  0  0  0  0  0  0  0  0  0
   23.3862  -23.5173  -14.2213 C   0  0  0  0  0  0  0  0  0  0  0  0
   24.5648  -23.7409  -14.8882 C   0  0  0  0  0  0  0  0  0  0  0  0
   24.8548  -22.9685  -16.0098 C   0  0  0  0  0  0  0  0  0  0  0  0
   23.9525  -22.0072  -16.4139 C   0  0  0  0  0  0  0  0  0  0  0  0
   21.4482  -19.6770  -14.0379 C   0  0  0  0  0  0  0  0  0  0  0  0
   20.1835  -19.9977  -13.6092 O   0  0  0  0  0  0  0  0  0  0  0  0
   22.3279  -19.5276  -13.1187 O   0  0  0  0  0  0  0  0  0  0  0  0
  2  1  1  1
  2  3  1  0
  2  4  1  0
  4  6  1  0
  4  5  1  6
  6  7  2  0
  9 11  1  0
  9  8  1  6
 10  9  1  0
 11 12  1  6
 12  6  1  0
 13 14  2  0
 13 11  1  0
 15 13  1  0
 16 24  1  0
 16 15  1  0
 16 17  1  1
 18 17  1  0
 19 18  2  0
 20 19  1  0
 21 20  2  0
 21 22  1  0
 22 23  2  0
 23 18  1  0
 24 25  1  0
 26 24  2  0
M  END
$$$$
