TTF.pdb
     RDKit          3D

 26 26  0  0  1  0  0  0  0  0999 V2000
   23.8903  -16.5163  -16.0987 C   0  0  0  0  0  0  0  0  0  0  0  0
   23.7139  -17.3273  -14.8653 C   0  0  1  0  0  0  0  0  0  0  0  0
   22.6133  -16.8547  -14.1559 O   0  0  0  0  0  0  0  0  0  0  0  0
   23.4793  -18.7991  -15.1329 C   0  0  2  0  0  0  0  0  0  0  0  0
   22.2173  -19.0230  -15.8095 N   0  0  0  0  0  0  0  0  0  0  0  0
   23.4873  -19.5176  -13.8357 C   0  0  0  0  0  0  0  0  0  0  0  0
   22.4262  -19.8479  -13.2347 O   0  0  0  0  0  0  0  0  0  0  0  0
   24.0030  -22.7129  -13.1662 C   0  0  0  0  0  0  0  0  0  0  0  0
   25.1178  -22.1219  -12.3288 C   0  0  1  0  0  0  0  0  0  0  0  0
   26.2897  -22.2654  -13.0397 O   0  0  0  0  0  0  0  0  0  0  0  0
   24.7999  -20.6713  -12.0298 C   0  0  2  0  0  0  0  0  0  0  0  0
   24.7151  -19.8678  -13.2087 N   0  0  0  0  0  0  0  0  0  0  0  0
   25.7255  -20.1061  -11.0207 C   0  0  0  0  0  0  0  0  0  0  0  0
   25.9394  -18.8850  -10.9773 O   0  0  0  0  0  0  0  0  0  0  0  0
   26.3771  -20.9528  -10.0935 N   0  0  0  0  0  0  0  0  0  0  0  0
   27.2280  -20.4464   -9.0158 C   0  0  1  0  0  0  0  0  0  0  0  0
   26.4471  -19.6137   -8.0520 C   0  0  0  0  0  0  0  0  0  0  0  0
   27.2101  -19.2709   -6.8599 C   0  0  0  0  0  0  0  0  0  0  0  0
   27.8397  -18.0279   -6.7346 C   0  0  0  0  0  0  0  0  0  0  0  0
   28.5486  -17.6929   -5.6036 C   0  0  0  0  0  0  0  0  0  0  0  0
   28.6670  -18.5661   -4.5512 C   0  0  0  0  0  0  0  0  0  0  0  0
   28.0521  -19.8118   -4.6441 C   0  0  0  0  0  0  0  0  0  0  0  0
   27.3463  -20.1280   -5.7858 C   0  0  0  0  0  0  0  0  0  0  0  0
   27.9538  -21.5268   -8.3452 C   0  0  0  0  0  0  0  0  0  0  0  0
   27.4312  -22.6985   -7.8552 O   0  0  0  0  0  0  0  0  0  0  0  0
   29.2162  -21.3717   -8.1922 O   0  0  0  0  0  0  0  0  0  0  0  0
  2  1  1  6
  2  3  1  0
  2  4  1  0
  4  6  1  0
  4  5  1  1
  6  7  2  0
  9 11  1  0
  9  8  1  6
 10  9  1  0
 11 12  1  6
 12  6  1  0
 13 14  2  0
 13 11  1  0
 15 13  1  0
 16 24  1  0
 16 15  1  0
 16 17  1  1
 18 17  1  0
 19 18  2  0
 20 19  1  0
 21 20  2  0
 21 22  1  0
 22 23  2  0
 23 18  1  0
 24 25  1  0
 26 24  2  0
M  END
$$$$
