TTF.pdb
     RDKit          3D

 26 26  0  0  1  0  0  0  0  0999 V2000
   24.7204  -11.9393  -15.5765 C   0  0  0  0  0  0  0  0  0  0  0  0
   24.5828  -12.5020  -16.9457 C   0  0  1  0  0  0  0  0  0  0  0  0
   25.1669  -13.7650  -16.9863 O   0  0  0  0  0  0  0  0  0  0  0  0
   23.1462  -12.6552  -17.3993 C   0  0  2  0  0  0  0  0  0  0  0  0
   23.0659  -13.2056  -18.7377 N   0  0  0  0  0  0  0  0  0  0  0  0
   22.5001  -11.3209  -17.3660 C   0  0  0  0  0  0  0  0  0  0  0  0
   22.7612  -10.4178  -18.2101 O   0  0  0  0  0  0  0  0  0  0  0  0
   19.8136   -9.9039  -18.4212 C   0  0  0  0  0  0  0  0  0  0  0  0
   19.6043   -9.6206  -16.9484 C   0  0  1  0  0  0  0  0  0  0  0  0
   18.6865  -10.5346  -16.4777 O   0  0  0  0  0  0  0  0  0  0  0  0
   20.9340   -9.7177  -16.2293 C   0  0  2  0  0  0  0  0  0  0  0  0
   21.5437  -11.0035  -16.3622 N   0  0  0  0  0  0  0  0  0  0  0  0
   20.8246   -9.2824  -14.8175 C   0  0  0  0  0  0  0  0  0  0  0  0
   20.7021  -10.1183  -13.9092 O   0  0  0  0  0  0  0  0  0  0  0  0
   20.8585   -7.9071  -14.4879 N   0  0  0  0  0  0  0  0  0  0  0  0
   20.8259   -7.4190  -13.1086 C   0  0  1  0  0  0  0  0  0  0  0  0
   21.9908   -6.5294  -12.8189 C   0  0  0  0  0  0  0  0  0  0  0  0
   22.1040   -5.4273  -13.7640 C   0  0  0  0  0  0  0  0  0  0  0  0
   21.4342   -4.2177  -13.5509 C   0  0  0  0  0  0  0  0  0  0  0  0
   21.5505   -3.1676  -14.4328 C   0  0  0  0  0  0  0  0  0  0  0  0
   22.3294   -3.2645  -15.5587 C   0  0  0  0  0  0  0  0  0  0  0  0
   23.0096   -4.4552  -15.8002 C   0  0  0  0  0  0  0  0  0  0  0  0
   22.8799   -5.4955  -14.9043 C   0  0  0  0  0  0  0  0  0  0  0  0
   19.5504   -6.7735  -12.7922 C   0  0  0  0  0  0  0  0  0  0  0  0
   19.0394   -6.5121  -11.5446 O   0  0  0  0  0  0  0  0  0  0  0  0
   18.8219   -6.4098  -13.7811 O   0  0  0  0  0  0  0  0  0  0  0  0
  2  1  1  1
  2  3  1  0
  2  4  1  0
  4  6  1  0
  4  5  1  6
  6  7  2  0
  9 11  1  0
  9  8  1  6
 10  9  1  0
 11 12  1  1
 12  6  1  0
 13 14  2  0
 13 11  1  0
 15 13  1  0
 16 24  1  0
 16 15  1  0
 16 17  1  6
 18 17  1  0
 19 18  2  0
 20 19  1  0
 21 20  2  0
 21 22  1  0
 22 23  2  0
 23 18  1  0
 24 25  1  0
 26 24  2  0
M  END
$$$$
