TTF.pdb
     RDKit          3D

 26 26  0  0  1  0  0  0  0  0999 V2000
   18.9592  -10.8749  -20.0025 C   0  0  0  0  0  0  0  0  0  0  0  0
   19.1033  -10.2450  -18.6637 C   0  0  1  0  0  0  0  0  0  0  0  0
   17.8859   -9.6875  -18.2826 O   0  0  0  0  0  0  0  0  0  0  0  0
   19.5150  -11.2146  -17.5758 C   0  0  2  0  0  0  0  0  0  0  0  0
   18.5451  -12.2797  -17.4166 N   0  0  0  0  0  0  0  0  0  0  0  0
   19.6475  -10.4628  -16.3045 C   0  0  0  0  0  0  0  0  0  0  0  0
   18.7244  -10.4154  -15.4432 O   0  0  0  0  0  0  0  0  0  0  0  0
   23.2846   -9.8728  -14.4258 C   0  0  0  0  0  0  0  0  0  0  0  0
   21.9239   -9.6377  -13.8041 C   0  0  1  0  0  0  0  0  0  0  0  0
   22.1109   -8.8617  -12.6806 O   0  0  0  0  0  0  0  0  0  0  0  0
   21.0210   -8.9703  -14.8209 C   0  0  2  0  0  0  0  0  0  0  0  0
   20.8430   -9.7535  -16.0031 N   0  0  0  0  0  0  0  0  0  0  0  0
   21.4595   -7.5862  -15.1154 C   0  0  0  0  0  0  0  0  0  0  0  0
   22.3532   -7.3734  -15.9490 O   0  0  0  0  0  0  0  0  0  0  0  0
   20.8638   -6.4897  -14.4491 N   0  0  0  0  0  0  0  0  0  0  0  0
   21.2861   -5.1048  -14.6624 C   0  0  1  0  0  0  0  0  0  0  0  0
   20.1681   -4.1489  -14.4009 C   0  0  0  0  0  0  0  0  0  0  0  0
   20.5126   -2.7755  -14.7417 C   0  0  0  0  0  0  0  0  0  0  0  0
   20.3399   -2.2858  -16.0407 C   0  0  0  0  0  0  0  0  0  0  0  0
   20.6489   -0.9844  -16.3644 C   0  0  0  0  0  0  0  0  0  0  0  0
   21.1398   -0.1129  -15.4245 C   0  0  0  0  0  0  0  0  0  0  0  0
   21.3234   -0.5689  -14.1218 C   0  0  0  0  0  0  0  0  0  0  0  0
   21.0076   -1.8764  -13.8180 C   0  0  0  0  0  0  0  0  0  0  0  0
   22.4821   -4.7769  -13.8839 C   0  0  0  0  0  0  0  0  0  0  0  0
   22.7134   -5.0583  -12.5598 O   0  0  0  0  0  0  0  0  0  0  0  0
   23.4222   -4.1580  -14.4955 O   0  0  0  0  0  0  0  0  0  0  0  0
  2  1  1  6
  2  3  1  0
  2  4  1  0
  4  6  1  0
  4  5  1  1
  6  7  2  0
  9 11  1  0
  9  8  1  6
 10  9  1  0
 11 12  1  6
 12  6  1  0
 13 14  2  0
 13 11  1  0
 15 13  1  0
 16 24  1  0
 16 15  1  0
 16 17  1  1
 18 17  1  0
 19 18  2  0
 20 19  1  0
 21 20  2  0
 21 22  1  0
 22 23  2  0
 23 18  1  0
 24 25  1  0
 26 24  2  0
M  END
$$$$
