TTF.pdb
     RDKit          3D

 26 26  0  0  1  0  0  0  0  0999 V2000
   21.1805  -12.0003  -19.9046 C   0  0  0  0  0  0  0  0  0  0  0  0
   22.0191  -11.8846  -21.1267 C   0  0  1  0  0  0  0  0  0  0  0  0
   21.8059  -12.9947  -21.9393 O   0  0  0  0  0  0  0  0  0  0  0  0
   21.7188  -10.6544  -21.9569 C   0  0  2  0  0  0  0  0  0  0  0  0
   22.5385  -10.6042  -23.1511 N   0  0  0  0  0  0  0  0  0  0  0  0
   21.9725   -9.4542  -21.1236 C   0  0  0  0  0  0  0  0  0  0  0  0
   23.1287   -8.9715  -20.9608 O   0  0  0  0  0  0  0  0  0  0  0  0
   20.8654   -6.0841  -21.5672 C   0  0  0  0  0  0  0  0  0  0  0  0
   20.3338   -6.4193  -20.1894 C   0  0  1  0  0  0  0  0  0  0  0  0
   18.9799   -6.6460  -20.3123 O   0  0  0  0  0  0  0  0  0  0  0  0
   21.0730   -7.6270  -19.6513 C   0  0  2  0  0  0  0  0  0  0  0  0
   20.9014   -8.7899  -20.4643 N   0  0  0  0  0  0  0  0  0  0  0  0
   20.7501   -7.8752  -18.2270 C   0  0  0  0  0  0  0  0  0  0  0  0
   19.9635   -8.7801  -17.9087 O   0  0  0  0  0  0  0  0  0  0  0  0
   21.3353   -7.0826  -17.2119 N   0  0  0  0  0  0  0  0  0  0  0  0
   21.1035   -7.3182  -15.7861 C   0  0  1  0  0  0  0  0  0  0  0  0
   22.3911   -7.4680  -15.0433 C   0  0  0  0  0  0  0  0  0  0  0  0
   23.3012   -6.3534  -15.2674 C   0  0  0  0  0  0  0  0  0  0  0  0
   24.3580   -6.4523  -16.1788 C   0  0  0  0  0  0  0  0  0  0  0  0
   25.2113   -5.3967  -16.4060 C   0  0  0  0  0  0  0  0  0  0  0  0
   25.0600   -4.2025  -15.7466 C   0  0  0  0  0  0  0  0  0  0  0  0
   24.0178   -4.0712  -14.8327 C   0  0  0  0  0  0  0  0  0  0  0  0
   23.1738   -5.1407  -14.6195 C   0  0  0  0  0  0  0  0  0  0  0  0
   20.2475   -6.2859  -15.1984 C   0  0  0  0  0  0  0  0  0  0  0  0
   19.6296   -6.3190  -13.9724 O   0  0  0  0  0  0  0  0  0  0  0  0
   20.0449   -5.2315  -15.8973 O   0  0  0  0  0  0  0  0  0  0  0  0
  2  1  1  1
  2  3  1  0
  2  4  1  0
  4  6  1  0
  4  5  1  6
  6  7  2  0
  9 11  1  0
  9  8  1  6
 10  9  1  0
 11 12  1  6
 12  6  1  0
 13 14  2  0
 13 11  1  0
 15 13  1  0
 16 24  1  0
 16 15  1  0
 16 17  1  1
 18 17  1  0
 19 18  2  0
 20 19  1  0
 21 20  2  0
 21 22  1  0
 22 23  2  0
 23 18  1  0
 24 25  1  0
 26 24  2  0
M  END
$$$$
