TTF.pdb
     RDKit          3D

 26 26  0  0  1  0  0  0  0  0999 V2000
   29.0045  -18.7664  -13.4763 C   0  0  0  0  0  0  0  0  0  0  0  0
   28.3092  -18.0580  -14.5830 C   0  0  1  0  0  0  0  0  0  0  0  0
   29.1498  -17.9957  -15.6909 O   0  0  0  0  0  0  0  0  0  0  0  0
   27.0279  -18.7318  -15.0270 C   0  0  2  0  0  0  0  0  0  0  0  0
   26.3845  -17.9991  -16.0993 N   0  0  0  0  0  0  0  0  0  0  0  0
   26.1160  -18.8177  -13.8607 C   0  0  0  0  0  0  0  0  0  0  0  0
   24.9481  -18.3362  -13.8738 O   0  0  0  0  0  0  0  0  0  0  0  0
   23.7524  -21.4609  -11.1119 C   0  0  0  0  0  0  0  0  0  0  0  0
   24.6516  -20.9731  -12.2284 C   0  0  1  0  0  0  0  0  0  0  0  0
   23.8421  -20.4436  -13.2101 O   0  0  0  0  0  0  0  0  0  0  0  0
   25.6253  -19.9539  -11.6736 C   0  0  2  0  0  0  0  0  0  0  0  0
   26.5322  -19.4587  -12.6610 N   0  0  0  0  0  0  0  0  0  0  0  0
   26.3187  -20.4615  -10.4669 C   0  0  0  0  0  0  0  0  0  0  0  0
   27.0375  -21.4704  -10.5321 O   0  0  0  0  0  0  0  0  0  0  0  0
   26.1695  -19.8011   -9.2248 N   0  0  0  0  0  0  0  0  0  0  0  0
   26.8379  -20.2473   -8.0017 C   0  0  1  0  0  0  0  0  0  0  0  0
   27.5505  -19.1196   -7.3290 C   0  0  0  0  0  0  0  0  0  0  0  0
   28.1766  -19.5189   -6.0762 C   0  0  0  0  0  0  0  0  0  0  0  0
   29.3363  -20.3012   -6.0624 C   0  0  0  0  0  0  0  0  0  0  0  0
   29.9409  -20.6680   -4.8818 C   0  0  0  0  0  0  0  0  0  0  0  0
   29.4299  -20.2807   -3.6682 C   0  0  0  0  0  0  0  0  0  0  0  0
   28.2763  -19.5013   -3.6471 C   0  0  0  0  0  0  0  0  0  0  0  0
   27.6858  -19.1444   -4.8411 C   0  0  0  0  0  0  0  0  0  0  0  0
   25.9117  -20.9296   -7.0959 C   0  0  0  0  0  0  0  0  0  0  0  0
   24.5467  -21.0192   -7.2176 O   0  0  0  0  0  0  0  0  0  0  0  0
   26.4200  -21.5090   -6.0728 O   0  0  0  0  0  0  0  0  0  0  0  0
  2  1  1  1
  2  3  1  0
  2  4  1  0
  4  6  1  0
  4  5  1  6
  6  7  2  0
  9 11  1  0
  9  8  1  1
 10  9  1  0
 11 12  1  6
 12  6  1  0
 13 14  2  0
 13 11  1  0
 15 13  1  0
 16 24  1  0
 16 15  1  0
 16 17  1  1
 18 17  1  0
 19 18  2  0
 20 19  1  0
 21 20  2  0
 21 22  1  0
 22 23  2  0
 23 18  1  0
 24 25  1  0
 26 24  2  0
M  END
$$$$
