LYW.pdb
     RDKit          3D

 35 37  0  0  1  0  0  0  0  0999 V2000
   18.0764  -15.4423  -18.2687 C   0  0  0  0  0  0  0  0  0  0  0  0
   19.2794  -15.4421  -17.3532 C   0  0  1  0  0  0  0  0  0  0  0  0
   19.1267  -14.3648  -16.2958 C   0  0  0  0  0  0  0  0  0  0  0  0
   19.5438  -16.7834  -16.7185 C   0  0  0  0  0  0  0  0  0  0  0  0
   20.7881  -16.7064  -15.8896 C   0  0  2  0  0  0  0  0  0  0  0  0
   21.8438  -16.0174  -16.5570 N   0  0  0  0  0  0  0  0  0  0  0  0
   21.2551  -18.0158  -15.4073 C   0  0  0  0  0  0  0  0  0  0  0  0
   20.4374  -18.7516  -14.8008 O   0  0  0  0  0  0  0  0  0  0  0  0
   25.7995  -25.6912  -15.5556 O   0  0  0  0  0  0  0  0  0  0  0  0
   25.2640  -24.4127  -15.7354 C   0  0  0  0  0  0  0  0  0  0  0  0
   26.0991  -23.3431  -15.8792 C   0  0  0  0  0  0  0  0  0  0  0  0
   25.5775  -22.0668  -16.0588 C   0  0  0  0  0  0  0  0  0  0  0  0
   24.2238  -21.8310  -16.0985 C   0  0  0  0  0  0  0  0  0  0  0  0
   23.7000  -20.4899  -16.2916 C   0  0  0  0  0  0  0  0  0  0  0  0
   22.9337  -19.8846  -15.1552 C   0  0  2  0  0  0  0  0  0  0  0  0
   22.5663  -18.5049  -15.5800 N   0  0  0  0  0  0  0  0  0  0  0  0
   23.6513  -19.7292  -13.8933 C   0  0  0  0  0  0  0  0  0  0  0  0
   24.3325  -18.6653  -13.6604 O   0  0  0  0  0  0  0  0  0  0  0  0
   23.3909  -22.9441  -15.9484 C   0  0  0  0  0  0  0  0  0  0  0  0
   23.9023  -24.2144  -15.7698 C   0  0  0  0  0  0  0  0  0  0  0  0
   23.6892  -20.6672  -12.8169 N   0  0  0  0  0  0  0  0  0  0  0  0
   24.9383  -21.0935  -12.2197 C   0  0  1  0  0  0  0  0  0  0  0  0
   25.6164  -19.8573  -11.6556 C   0  0  0  0  0  0  0  0  0  0  0  0
   26.8850  -20.1893  -10.9701 C   0  0  0  0  0  0  0  0  0  0  0  0
   28.0209  -20.7350  -11.5051 C   0  0  0  0  0  0  0  0  0  0  0  0
   28.9380  -20.8774  -10.5466 N   0  0  0  0  0  0  0  0  0  0  0  0
   28.4238  -20.4340   -9.3885 C   0  0  0  0  0  0  0  0  0  0  0  0
   28.9777  -20.3676   -8.0997 C   0  0  0  0  0  0  0  0  0  0  0  0
   28.2551  -19.8664   -7.0423 C   0  0  0  0  0  0  0  0  0  0  0  0
   26.9762  -19.4355   -7.2949 C   0  0  0  0  0  0  0  0  0  0  0  0
   26.4284  -19.4980   -8.5553 C   0  0  0  0  0  0  0  0  0  0  0  0
   27.1580  -20.0068   -9.6362 C   0  0  0  0  0  0  0  0  0  0  0  0
   24.8328  -22.1793  -11.2579 C   0  0  0  0  0  0  0  0  0  0  0  0
   23.8378  -22.3883  -10.5177 O   0  0  0  0  0  0  0  0  0  0  0  0
   25.8760  -23.0791  -11.1058 O   0  0  0  0  0  0  0  0  0  0  0  0
  2  3  1  1
  2  1  1  0
  4  2  1  0
  5  4  1  0
  5  6  1  6
  7  8  2  0
  7  5  1  0
  9 10  1  0
 10 11  2  0
 11 12  1  0
 13 12  2  0
 13 14  1  0
 15 14  1  6
 15 16  1  0
 16  7  1  0
 17 15  1  0
 17 18  2  0
 19 13  1  0
 20 10  1  0
 20 19  2  0
 21 17  1  0
 22 21  1  0
 22 23  1  1
 24 23  1  0
 24 25  2  0
 26 25  1  0
 27 26  1  0
 28 27  2  0
 29 28  1  0
 30 29  2  0
 30 31  1  0
 31 32  2  0
 32 27  1  0
 32 24  1  0
 33 22  1  0
 34 33  2  0
 35 33  1  0
M  END
$$$$
