LYW.pdb
     RDKit          3D

 35 37  0  0  1  0  0  0  0  0999 V2000
   30.2894  -15.3362  -18.4415 C   0  0  0  0  0  0  0  0  0  0  0  0
   29.7375  -16.7004  -18.0954 C   0  0  1  0  0  0  0  0  0  0  0  0
   30.8706  -17.7012  -17.9668 C   0  0  0  0  0  0  0  0  0  0  0  0
   28.8802  -16.6980  -16.8557 C   0  0  0  0  0  0  0  0  0  0  0  0
   28.4413  -18.0964  -16.5503 C   0  0  2  0  0  0  0  0  0  0  0  0
   28.0281  -18.8036  -17.7182 N   0  0  0  0  0  0  0  0  0  0  0  0
   27.4027  -18.1726  -15.5106 C   0  0  0  0  0  0  0  0  0  0  0  0
   26.7818  -17.1220  -15.2131 O   0  0  0  0  0  0  0  0  0  0  0  0
   20.1188  -21.2946  -11.6484 O   0  0  0  0  0  0  0  0  0  0  0  0
   21.2858  -21.0308  -12.3711 C   0  0  0  0  0  0  0  0  0  0  0  0
   21.3598  -19.9154  -13.1537 C   0  0  0  0  0  0  0  0  0  0  0  0
   22.5157  -19.6430  -13.8768 C   0  0  0  0  0  0  0  0  0  0  0  0
   23.6134  -20.4694  -13.8360 C   0  0  0  0  0  0  0  0  0  0  0  0
   24.8130  -20.1636  -14.5960 C   0  0  0  0  0  0  0  0  0  0  0  0
   25.8854  -19.3846  -13.8974 C   0  0  2  0  0  0  0  0  0  0  0  0
   27.0540  -19.3518  -14.8205 N   0  0  0  0  0  0  0  0  0  0  0  0
   26.3886  -19.9436  -12.6461 C   0  0  0  0  0  0  0  0  0  0  0  0
   27.2177  -20.9248  -12.6602 O   0  0  0  0  0  0  0  0  0  0  0  0
   23.5108  -21.6052  -13.0267 C   0  0  0  0  0  0  0  0  0  0  0  0
   22.3658  -21.8816  -12.3059 C   0  0  0  0  0  0  0  0  0  0  0  0
   26.0582  -19.5064  -11.3271 N   0  0  0  0  0  0  0  0  0  0  0  0
   26.3810  -20.2979  -10.1575 C   0  0  1  0  0  0  0  0  0  0  0  0
   26.9092  -19.3467   -9.0980 C   0  0  0  0  0  0  0  0  0  0  0  0
   26.9770  -19.9882   -7.7663 C   0  0  0  0  0  0  0  0  0  0  0  0
   26.2636  -21.0615   -7.3043 C   0  0  0  0  0  0  0  0  0  0  0  0
   26.6224  -21.3236   -6.0463 N   0  0  0  0  0  0  0  0  0  0  0  0
   27.5611  -20.4396   -5.6725 C   0  0  0  0  0  0  0  0  0  0  0  0
   28.2552  -20.2893   -4.4609 C   0  0  0  0  0  0  0  0  0  0  0  0
   29.1913  -19.2950   -4.2986 C   0  0  0  0  0  0  0  0  0  0  0  0
   29.4197  -18.4583   -5.3629 C   0  0  0  0  0  0  0  0  0  0  0  0
   28.7428  -18.6007   -6.5521 C   0  0  0  0  0  0  0  0  0  0  0  0
   27.7888  -19.6104   -6.7245 C   0  0  0  0  0  0  0  0  0  0  0  0
   25.3155  -21.1613   -9.6736 C   0  0  0  0  0  0  0  0  0  0  0  0
   24.1245  -20.7996   -9.4938 O   0  0  0  0  0  0  0  0  0  0  0  0
   25.5767  -22.4891   -9.3740 O   0  0  0  0  0  0  0  0  0  0  0  0
  2  3  1  1
  2  1  1  0
  4  2  1  0
  5  4  1  0
  5  6  1  6
  7  8  2  0
  7  5  1  0
  9 10  1  0
 10 11  2  0
 11 12  1  0
 13 12  2  0
 13 14  1  0
 15 14  1  6
 15 16  1  0
 16  7  1  0
 17 15  1  0
 17 18  2  0
 19 13  1  0
 20 10  1  0
 20 19  2  0
 21 17  1  0
 22 21  1  0
 22 23  1  1
 24 23  1  0
 24 25  2  0
 26 25  1  0
 27 26  1  0
 28 27  2  0
 29 28  1  0
 30 29  2  0
 30 31  1  0
 31 32  2  0
 32 27  1  0
 32 24  1  0
 33 22  1  0
 34 33  2  0
 35 33  1  0
M  END
$$$$
