LYW.pdb
     RDKit          3D

 35 37  0  0  1  0  0  0  0  0999 V2000
   22.1368  -16.6647  -21.3886 C   0  0  0  0  0  0  0  0  0  0  0  0
   22.2392  -16.9637  -19.9102 C   0  0  1  0  0  0  0  0  0  0  0  0
   21.3434  -18.1354  -19.5545 C   0  0  0  0  0  0  0  0  0  0  0  0
   23.6532  -17.2100  -19.4500 C   0  0  0  0  0  0  0  0  0  0  0  0
   23.6487  -17.5741  -17.9978 C   0  0  2  0  0  0  0  0  0  0  0  0
   23.1893  -16.5061  -17.1713 N   0  0  0  0  0  0  0  0  0  0  0  0
   24.9445  -18.0760  -17.5137 C   0  0  0  0  0  0  0  0  0  0  0  0
   25.4429  -19.0792  -18.0820 O   0  0  0  0  0  0  0  0  0  0  0  0
   30.2214  -15.8834  -21.1774 O   0  0  0  0  0  0  0  0  0  0  0  0
   29.6557  -16.1352  -19.9243 C   0  0  0  0  0  0  0  0  0  0  0  0
   30.0255  -17.2476  -19.2259 C   0  0  0  0  0  0  0  0  0  0  0  0
   29.4694  -17.5080  -17.9784 C   0  0  0  0  0  0  0  0  0  0  0  0
   28.5406  -16.6724  -17.4050 C   0  0  0  0  0  0  0  0  0  0  0  0
   27.9755  -16.9609  -16.0983 C   0  0  0  0  0  0  0  0  0  0  0  0
   26.9767  -18.0747  -16.0157 C   0  0  2  0  0  0  0  0  0  0  0  0
   25.6703  -17.5045  -16.4484 N   0  0  0  0  0  0  0  0  0  0  0  0
   26.7388  -18.6416  -14.6915 C   0  0  0  0  0  0  0  0  0  0  0  0
   26.5699  -17.8723  -13.6767 O   0  0  0  0  0  0  0  0  0  0  0  0
   28.1794  -15.5401  -18.1419 C   0  0  0  0  0  0  0  0  0  0  0  0
   28.7279  -15.2756  -19.3813 C   0  0  0  0  0  0  0  0  0  0  0  0
   26.6604  -20.0295  -14.3635 N   0  0  0  0  0  0  0  0  0  0  0  0
   26.4781  -20.4822  -12.9995 C   0  0  1  0  0  0  0  0  0  0  0  0
   25.3524  -19.6609  -12.3958 C   0  0  0  0  0  0  0  0  0  0  0  0
   24.9968  -20.1280  -11.0376 C   0  0  0  0  0  0  0  0  0  0  0  0
   25.8129  -20.2663   -9.9471 C   0  0  0  0  0  0  0  0  0  0  0  0
   25.0998  -20.7191   -8.9144 N   0  0  0  0  0  0  0  0  0  0  0  0
   23.8265  -20.8813   -9.3078 C   0  0  0  0  0  0  0  0  0  0  0  0
   22.6952  -21.3289   -8.6064 C   0  0  0  0  0  0  0  0  0  0  0  0
   21.4683  -21.4167   -9.2215 C   0  0  0  0  0  0  0  0  0  0  0  0
   21.3930  -21.0513  -10.5428 C   0  0  0  0  0  0  0  0  0  0  0  0
   22.4979  -20.6121  -11.2350 C   0  0  0  0  0  0  0  0  0  0  0  0
   23.7497  -20.5202  -10.6154 C   0  0  0  0  0  0  0  0  0  0  0  0
   26.2940  -21.9155  -12.8360 C   0  0  0  0  0  0  0  0  0  0  0  0
   25.7175  -22.6644  -13.6658 O   0  0  0  0  0  0  0  0  0  0  0  0
   26.7698  -22.5541  -11.7016 O   0  0  0  0  0  0  0  0  0  0  0  0
  2  3  1  6
  2  1  1  0
  4  2  1  0
  5  4  1  0
  5  6  1  1
  7  8  2  0
  7  5  1  0
  9 10  1  0
 10 11  2  0
 11 12  1  0
 13 12  2  0
 13 14  1  0
 15 14  1  1
 15 16  1  0
 16  7  1  0
 17 15  1  0
 17 18  2  0
 19 13  1  0
 20 10  1  0
 20 19  2  0
 21 17  1  0
 22 21  1  0
 22 23  1  6
 24 23  1  0
 24 25  2  0
 26 25  1  0
 27 26  1  0
 28 27  2  0
 29 28  1  0
 30 29  2  0
 30 31  1  0
 31 32  2  0
 32 27  1  0
 32 24  1  0
 33 22  1  0
 34 33  2  0
 35 33  1  0
M  END
$$$$
