LYW.pdb
     RDKit          3D

 35 37  0  0  1  0  0  0  0  0999 V2000
   24.8644  -21.1727   -8.0248 C   0  0  0  0  0  0  0  0  0  0  0  0
   24.6235  -21.4869   -9.4838 C   0  0  1  0  0  0  0  0  0  0  0  0
   23.2288  -22.0549   -9.6689 C   0  0  0  0  0  0  0  0  0  0  0  0
   24.8462  -20.3044  -10.3914 C   0  0  0  0  0  0  0  0  0  0  0  0
   24.5109  -20.6864  -11.7996 C   0  0  2  0  0  0  0  0  0  0  0  0
   25.3448  -21.7339  -12.2918 N   0  0  0  0  0  0  0  0  0  0  0  0
   24.5118  -19.5490  -12.7333 C   0  0  0  0  0  0  0  0  0  0  0  0
   23.7067  -18.6079  -12.5237 O   0  0  0  0  0  0  0  0  0  0  0  0
   28.4664  -13.7636  -18.3024 O   0  0  0  0  0  0  0  0  0  0  0  0
   28.0707  -14.7427  -17.3868 C   0  0  0  0  0  0  0  0  0  0  0  0
   28.2239  -16.0623  -17.6985 C   0  0  0  0  0  0  0  0  0  0  0  0
   27.8339  -17.0449  -16.7952 C   0  0  0  0  0  0  0  0  0  0  0  0
   27.2875  -16.7360  -15.5723 C   0  0  0  0  0  0  0  0  0  0  0  0
   26.8910  -17.7783  -14.6415 C   0  0  0  0  0  0  0  0  0  0  0  0
   25.4464  -18.1758  -14.6344 C   0  0  2  0  0  0  0  0  0  0  0  0
   25.3597  -19.4421  -13.8548 N   0  0  0  0  0  0  0  0  0  0  0  0
   24.8439  -18.4707  -15.9312 C   0  0  0  0  0  0  0  0  0  0  0  0
   25.1795  -19.5290  -16.5774 O   0  0  0  0  0  0  0  0  0  0  0  0
   27.1415  -15.3767  -15.2784 C   0  0  0  0  0  0  0  0  0  0  0  0
   27.5268  -14.3958  -16.1708 C   0  0  0  0  0  0  0  0  0  0  0  0
   23.8644  -17.6844  -16.6110 N   0  0  0  0  0  0  0  0  0  0  0  0
   23.3776  -18.0428  -17.9276 C   0  0  1  0  0  0  0  0  0  0  0  0
   21.9458  -17.5479  -18.0319 C   0  0  0  0  0  0  0  0  0  0  0  0
   21.8645  -16.0733  -17.9396 C   0  0  0  0  0  0  0  0  0  0  0  0
   22.4029  -15.1395  -18.7837 C   0  0  0  0  0  0  0  0  0  0  0  0
   22.1003  -13.9171  -18.3431 N   0  0  0  0  0  0  0  0  0  0  0  0
   21.3710  -14.0312  -17.2217 C   0  0  0  0  0  0  0  0  0  0  0  0
   20.8117  -13.0538  -16.3827 C   0  0  0  0  0  0  0  0  0  0  0  0
   20.0888  -13.4063  -15.2671 C   0  0  0  0  0  0  0  0  0  0  0  0
   19.9360  -14.7456  -15.0067 C   0  0  0  0  0  0  0  0  0  0  0  0
   20.4816  -15.7076  -15.8251 C   0  0  0  0  0  0  0  0  0  0  0  0
   21.2185  -15.3561  -16.9622 C   0  0  0  0  0  0  0  0  0  0  0  0
   24.2135  -17.6192  -19.0397 C   0  0  0  0  0  0  0  0  0  0  0  0
   24.9995  -16.6377  -19.0137 O   0  0  0  0  0  0  0  0  0  0  0  0
   24.1813  -18.3129  -20.2392 O   0  0  0  0  0  0  0  0  0  0  0  0
  2  3  1  1
  2  1  1  0
  4  2  1  0
  5  4  1  0
  5  6  1  6
  7  8  2  0
  7  5  1  0
  9 10  1  0
 10 11  2  0
 11 12  1  0
 13 12  2  0
 13 14  1  0
 15 14  1  6
 15 16  1  0
 16  7  1  0
 17 15  1  0
 17 18  2  0
 19 13  1  0
 20 10  1  0
 20 19  2  0
 21 17  1  0
 22 21  1  0
 22 23  1  6
 24 23  1  0
 24 25  2  0
 26 25  1  0
 27 26  1  0
 28 27  2  0
 29 28  1  0
 30 29  2  0
 30 31  1  0
 31 32  2  0
 32 27  1  0
 32 24  1  0
 33 22  1  0
 34 33  2  0
 35 33  1  0
M  END
$$$$
