LYW.pdb
     RDKit          3D

 35 37  0  0  1  0  0  0  0  0999 V2000
   28.4023  -19.5418  -19.1627 C   0  0  0  0  0  0  0  0  0  0  0  0
   28.3394  -20.4749  -17.9750 C   0  0  1  0  0  0  0  0  0  0  0  0
   29.7397  -20.9001  -17.5743 C   0  0  0  0  0  0  0  0  0  0  0  0
   27.5986  -19.8916  -16.7991 C   0  0  0  0  0  0  0  0  0  0  0  0
   27.8431  -20.7358  -15.5871 C   0  0  2  0  0  0  0  0  0  0  0  0
   27.6538  -22.1258  -15.8457 N   0  0  0  0  0  0  0  0  0  0  0  0
   27.0576  -20.3212  -14.4138 C   0  0  0  0  0  0  0  0  0  0  0  0
   27.0896  -19.1121  -14.0746 O   0  0  0  0  0  0  0  0  0  0  0  0
   21.2689  -18.3966  -17.2526 O   0  0  0  0  0  0  0  0  0  0  0  0
   21.9201  -19.0768  -16.2196 C   0  0  0  0  0  0  0  0  0  0  0  0
   22.5695  -20.2474  -16.4838 C   0  0  0  0  0  0  0  0  0  0  0  0
   23.2207  -20.9324  -15.4641 C   0  0  0  0  0  0  0  0  0  0  0  0
   23.2384  -20.4694  -14.1699 C   0  0  0  0  0  0  0  0  0  0  0  0
   23.9288  -21.1987  -13.1203 C   0  0  0  0  0  0  0  0  0  0  0  0
   25.2576  -20.6662  -12.6776 C   0  0  2  0  0  0  0  0  0  0  0  0
   26.2662  -21.1935  -13.6386 N   0  0  0  0  0  0  0  0  0  0  0  0
   25.7197  -21.0806  -11.3561 C   0  0  0  0  0  0  0  0  0  0  0  0
   26.0687  -22.2983  -11.1427 O   0  0  0  0  0  0  0  0  0  0  0  0
   22.5653  -19.2681  -13.9266 C   0  0  0  0  0  0  0  0  0  0  0  0
   21.9166  -18.5827  -14.9348 C   0  0  0  0  0  0  0  0  0  0  0  0
   25.8448  -20.2498  -10.2012 N   0  0  0  0  0  0  0  0  0  0  0  0
   25.7486  -20.7882   -8.8597 C   0  0  1  0  0  0  0  0  0  0  0  0
   26.3654  -19.7698   -7.9171 C   0  0  0  0  0  0  0  0  0  0  0  0
   27.7172  -20.1772   -7.4740 C   0  0  0  0  0  0  0  0  0  0  0  0
   28.6336  -20.9443   -8.1418 C   0  0  0  0  0  0  0  0  0  0  0  0
   29.7290  -21.0791   -7.3921 N   0  0  0  0  0  0  0  0  0  0  0  0
   29.5482  -20.4129   -6.2407 C   0  0  0  0  0  0  0  0  0  0  0  0
   30.3911  -20.2469   -5.1298 C   0  0  0  0  0  0  0  0  0  0  0  0
   29.9914  -19.5089   -4.0403 C   0  0  0  0  0  0  0  0  0  0  0  0
   28.7411  -18.9432   -4.0809 C   0  0  0  0  0  0  0  0  0  0  0  0
   27.9110  -19.1023   -5.1664 C   0  0  0  0  0  0  0  0  0  0  0  0
   28.3112  -19.8520   -6.2787 C   0  0  0  0  0  0  0  0  0  0  0  0
   24.4200  -21.2164   -8.4519 C   0  0  0  0  0  0  0  0  0  0  0  0
   23.3474  -20.8352   -8.9866 O   0  0  0  0  0  0  0  0  0  0  0  0
   24.2672  -22.1096   -7.4031 O   0  0  0  0  0  0  0  0  0  0  0  0
  2  3  1  1
  2  1  1  0
  4  2  1  0
  5  4  1  0
  5  6  1  6
  7  8  2  0
  7  5  1  0
  9 10  1  0
 10 11  2  0
 11 12  1  0
 13 12  2  0
 13 14  1  0
 15 14  1  6
 15 16  1  0
 16  7  1  0
 17 15  1  0
 17 18  2  0
 19 13  1  0
 20 10  1  0
 20 19  2  0
 21 17  1  0
 22 21  1  0
 22 23  1  1
 24 23  1  0
 24 25  2  0
 26 25  1  0
 27 26  1  0
 28 27  2  0
 29 28  1  0
 30 29  2  0
 30 31  1  0
 31 32  2  0
 32 27  1  0
 32 24  1  0
 33 22  1  0
 34 33  2  0
 35 33  1  0
M  END
$$$$
