LYW.pdb
     RDKit          3D

 35 37  0  0  1  0  0  0  0  0999 V2000
   25.6527  -16.7641  -21.9703 C   0  0  0  0  0  0  0  0  0  0  0  0
   25.5399  -18.0500  -21.1833 C   0  0  1  0  0  0  0  0  0  0  0  0
   26.9165  -18.5115  -20.7431 C   0  0  0  0  0  0  0  0  0  0  0  0
   24.6064  -17.9457  -20.0045 C   0  0  0  0  0  0  0  0  0  0  0  0
   24.9689  -18.9833  -18.9880 C   0  0  2  0  0  0  0  0  0  0  0  0
   24.7128  -20.3086  -19.4492 N   0  0  0  0  0  0  0  0  0  0  0  0
   24.3386  -18.7664  -17.6761 C   0  0  0  0  0  0  0  0  0  0  0  0
   24.4801  -17.6456  -17.1271 O   0  0  0  0  0  0  0  0  0  0  0  0
   18.3737  -19.5786  -11.0934 O   0  0  0  0  0  0  0  0  0  0  0  0
   19.1496  -19.6590  -12.2532 C   0  0  0  0  0  0  0  0  0  0  0  0
   19.3531  -18.5421  -13.0102 C   0  0  0  0  0  0  0  0  0  0  0  0
   20.1233  -18.6105  -14.1658 C   0  0  0  0  0  0  0  0  0  0  0  0
   20.7022  -19.7835  -14.5883 C   0  0  0  0  0  0  0  0  0  0  0  0
   21.5071  -19.8318  -15.7966 C   0  0  0  0  0  0  0  0  0  0  0  0
   22.9448  -19.4270  -15.6774 C   0  0  2  0  0  0  0  0  0  0  0  0
   23.5816  -19.7369  -16.9879 N   0  0  0  0  0  0  0  0  0  0  0  0
   23.7409  -20.1322  -14.6772 C   0  0  0  0  0  0  0  0  0  0  0  0
   24.3560  -21.2174  -14.9841 O   0  0  0  0  0  0  0  0  0  0  0  0
   20.4776  -20.9126  -13.7945 C   0  0  0  0  0  0  0  0  0  0  0  0
   19.7139  -20.8516  -12.6456 C   0  0  0  0  0  0  0  0  0  0  0  0
   23.9379  -19.7401  -13.3180 N   0  0  0  0  0  0  0  0  0  0  0  0
   24.7357  -20.5311  -12.4034 C   0  0  1  0  0  0  0  0  0  0  0  0
   25.4962  -19.5646  -11.5126 C   0  0  0  0  0  0  0  0  0  0  0  0
   26.5499  -20.2487  -10.7309 C   0  0  0  0  0  0  0  0  0  0  0  0
   27.3524  -21.2886  -11.1167 C   0  0  0  0  0  0  0  0  0  0  0  0
   28.1700  -21.6133  -10.1135 N   0  0  0  0  0  0  0  0  0  0  0  0
   27.9184  -20.8033   -9.0729 C   0  0  0  0  0  0  0  0  0  0  0  0
   28.4988  -20.7363   -7.7958 C   0  0  0  0  0  0  0  0  0  0  0  0
   28.0759  -19.8089   -6.8725 C   0  0  0  0  0  0  0  0  0  0  0  0
   27.0681  -18.9548   -7.2464 C   0  0  0  0  0  0  0  0  0  0  0  0
   26.4958  -19.0157   -8.4960 C   0  0  0  0  0  0  0  0  0  0  0  0
   26.9212  -19.9569   -9.4408 C   0  0  0  0  0  0  0  0  0  0  0  0
   24.0092  -21.5473  -11.6587 C   0  0  0  0  0  0  0  0  0  0  0  0
   24.2310  -22.7833  -11.7272 O   0  0  0  0  0  0  0  0  0  0  0  0
   22.9883  -21.1818  -10.7953 O   0  0  0  0  0  0  0  0  0  0  0  0
  2  3  1  1
  2  1  1  0
  4  2  1  0
  5  4  1  0
  5  6  1  6
  7  8  2  0
  7  5  1  0
  9 10  1  0
 10 11  2  0
 11 12  1  0
 13 12  2  0
 13 14  1  0
 15 14  1  6
 15 16  1  0
 16  7  1  0
 17 15  1  0
 17 18  2  0
 19 13  1  0
 20 10  1  0
 20 19  2  0
 21 17  1  0
 22 21  1  0
 22 23  1  1
 24 23  1  0
 24 25  2  0
 26 25  1  0
 27 26  1  0
 28 27  2  0
 29 28  1  0
 30 29  2  0
 30 31  1  0
 31 32  2  0
 32 27  1  0
 32 24  1  0
 33 22  1  0
 34 33  2  0
 35 33  1  0
M  END
$$$$
