LYW.pdb
     RDKit          3D

 35 37  0  0  1  0  0  0  0  0999 V2000
   28.5076  -21.2547   -7.1105 C   0  0  0  0  0  0  0  0  0  0  0  0
   27.1720  -20.8838   -7.7137 C   0  0  1  0  0  0  0  0  0  0  0  0
   26.6802  -19.5764   -7.1213 C   0  0  0  0  0  0  0  0  0  0  0  0
   27.1980  -20.8146   -9.2191 C   0  0  0  0  0  0  0  0  0  0  0  0
   25.8501  -20.4015   -9.7228 C   0  0  2  0  0  0  0  0  0  0  0  0
   24.7881  -20.9369   -8.9352 N   0  0  0  0  0  0  0  0  0  0  0  0
   25.6360  -20.7058  -11.1465 C   0  0  0  0  0  0  0  0  0  0  0  0
   26.6445  -20.8656  -11.8780 O   0  0  0  0  0  0  0  0  0  0  0  0
   17.8881  -21.0103  -11.9110 O   0  0  0  0  0  0  0  0  0  0  0  0
   19.2113  -21.3061  -12.2507 C   0  0  0  0  0  0  0  0  0  0  0  0
   19.5929  -21.2934  -13.5607 C   0  0  0  0  0  0  0  0  0  0  0  0
   20.9065  -21.5860  -13.9101 C   0  0  0  0  0  0  0  0  0  0  0  0
   21.8600  -21.8950  -12.9694 C   0  0  0  0  0  0  0  0  0  0  0  0
   23.2282  -22.1932  -13.3560 C   0  0  0  0  0  0  0  0  0  0  0  0
   24.2352  -21.0933  -13.2108 C   0  0  2  0  0  0  0  0  0  0  0  0
   24.3680  -20.8312  -11.7505 N   0  0  0  0  0  0  0  0  0  0  0  0
   23.8894  -19.8080  -13.8109 C   0  0  0  0  0  0  0  0  0  0  0  0
   23.4980  -18.8315  -13.0737 O   0  0  0  0  0  0  0  0  0  0  0  0
   21.4424  -21.9011  -11.6349 C   0  0  0  0  0  0  0  0  0  0  0  0
   20.1394  -21.6114  -11.2810 C   0  0  0  0  0  0  0  0  0  0  0  0
   23.9395  -19.4783  -15.1997 N   0  0  0  0  0  0  0  0  0  0  0  0
   23.6528  -18.1411  -15.6775 C   0  0  1  0  0  0  0  0  0  0  0  0
   24.6887  -17.2110  -15.0707 C   0  0  0  0  0  0  0  0  0  0  0  0
   26.0331  -17.4324  -15.6479 C   0  0  0  0  0  0  0  0  0  0  0  0
   26.5073  -17.0373  -16.8700 C   0  0  0  0  0  0  0  0  0  0  0  0
   27.7727  -17.4381  -17.0049 N   0  0  0  0  0  0  0  0  0  0  0  0
   28.1393  -18.0911  -15.8906 C   0  0  0  0  0  0  0  0  0  0  0  0
   29.3541  -18.7006  -15.5372 C   0  0  0  0  0  0  0  0  0  0  0  0
   29.5076  -19.3229  -14.3204 C   0  0  0  0  0  0  0  0  0  0  0  0
   28.4311  -19.3252  -13.4683 C   0  0  0  0  0  0  0  0  0  0  0  0
   27.2386  -18.7297  -13.8091 C   0  0  0  0  0  0  0  0  0  0  0  0
   27.0753  -18.0945  -15.0458 C   0  0  0  0  0  0  0  0  0  0  0  0
   23.5346  -18.0049  -17.1205 C   0  0  0  0  0  0  0  0  0  0  0  0
   23.9243  -18.8599  -17.9565 O   0  0  0  0  0  0  0  0  0  0  0  0
   22.9576  -16.8699  -17.6683 O   0  0  0  0  0  0  0  0  0  0  0  0
  2  3  1  1
  2  1  1  0
  4  2  1  0
  5  4  1  0
  5  6  1  1
  7  8  2  0
  7  5  1  0
  9 10  1  0
 10 11  2  0
 11 12  1  0
 13 12  2  0
 13 14  1  0
 15 14  1  1
 15 16  1  0
 16  7  1  0
 17 15  1  0
 17 18  2  0
 19 13  1  0
 20 10  1  0
 20 19  2  0
 21 17  1  0
 22 21  1  0
 22 23  1  6
 24 23  1  0
 24 25  2  0
 26 25  1  0
 27 26  1  0
 28 27  2  0
 29 28  1  0
 30 29  2  0
 30 31  1  0
 31 32  2  0
 32 27  1  0
 32 24  1  0
 33 22  1  0
 34 33  2  0
 35 33  1  0
M  END
$$$$
