MQG.pdb
     RDKit          3D

 22 21  0  0  1  0  0  0  0  0999 V2000
    8.5061  -12.0863   28.2538 C   0  0  0  0  0  0  0  0  0  0  0  0
    6.8343  -11.9191   27.6051 S   0  0  0  0  0  0  0  0  0  0  0  0
    6.2295  -13.5111   26.9420 C   0  0  0  0  0  0  0  0  0  0  0  0
    7.3176  -14.0632   26.0485 C   0  0  0  0  0  0  0  0  0  0  0  0
    6.7344  -15.2505   25.3130 C   0  0  2  0  0  0  0  0  0  0  0  0
    6.5557  -16.3635   26.2222 N   0  0  0  0  0  0  0  0  0  0  0  0
    7.5348  -15.6603   24.1548 C   0  0  0  0  0  0  0  0  0  0  0  0
    8.0766  -16.7908   24.1531 O   0  0  0  0  0  0  0  0  0  0  0  0
    7.8926  -12.7078   18.6489 N   0  0  0  0  0  0  0  0  0  0  0  0
    8.7527  -13.8011   18.4044 C   0  0  0  0  0  0  0  0  0  0  0  0
    9.2408  -13.9788   17.2730 O   0  0  0  0  0  0  0  0  0  0  0  0
    9.0690  -14.7320   19.5004 C   0  0  0  0  0  0  0  0  0  0  0  0
    8.3755  -14.2878   20.7474 C   0  0  0  0  0  0  0  0  0  0  0  0
    8.6192  -15.2251   21.9143 C   0  0  2  0  0  0  0  0  0  0  0  0
    7.7455  -14.8488   23.0073 N   0  0  0  0  0  0  0  0  0  0  0  0
   10.0471  -15.1972   22.3116 C   0  0  0  0  0  0  0  0  0  0  0  0
   10.5124  -14.1859   22.8916 O   0  0  0  0  0  0  0  0  0  0  0  0
   10.8651  -16.3085   22.0324 N   0  0  0  0  0  0  0  0  0  0  0  0
   12.2106  -16.4589   22.5724 C   0  0  0  0  0  0  0  0  0  0  0  0
   13.1927  -15.7429   21.7407 C   0  0  0  0  0  0  0  0  0  0  0  0
   12.7919  -15.1904   20.6838 O   0  0  0  0  0  0  0  0  0  0  0  0
   14.5248  -15.6360   22.0411 O   0  0  0  0  0  0  0  0  0  0  0  0
  1  2  1  0
  3  4  1  0
  3  2  1  0
  5  7  1  0
  5  6  1  1
  5  4  1  0
  7  8  2  0
  9 10  1  0
 10 12  1  0
 11 10  2  0
 12 13  1  0
 14 13  1  6
 14 16  1  0
 15 14  1  0
 15  7  1  0
 16 17  2  0
 16 18  1  0
 18 19  1  0
 19 20  1  0
 20 21  2  0
 20 22  1  0
M  END
$$$$
