MQG.pdb
     RDKit          3D

 22 21  0  0  1  0  0  0  0  0999 V2000
    6.5590  -11.7324   19.5450 C   0  0  0  0  0  0  0  0  0  0  0  0
    6.0509  -13.2493   18.7176 S   0  0  0  0  0  0  0  0  0  0  0  0
    6.9484  -14.6920   19.3909 C   0  0  0  0  0  0  0  0  0  0  0  0
    7.9967  -14.1597   20.3420 C   0  0  0  0  0  0  0  0  0  0  0  0
    8.6161  -15.3516   21.0395 C   0  0  2  0  0  0  0  0  0  0  0  0
    7.5899  -16.3064   21.4040 N   0  0  0  0  0  0  0  0  0  0  0  0
    9.4110  -14.9821   22.2148 C   0  0  0  0  0  0  0  0  0  0  0  0
   10.3941  -14.2170   22.0741 O   0  0  0  0  0  0  0  0  0  0  0  0
    7.7213  -13.6788   27.9012 N   0  0  0  0  0  0  0  0  0  0  0  0
    7.5241  -13.0107   26.6725 C   0  0  0  0  0  0  0  0  0  0  0  0
    6.7418  -12.0451   26.5982 O   0  0  0  0  0  0  0  0  0  0  0  0
    8.2525  -13.4657   25.4765 C   0  0  0  0  0  0  0  0  0  0  0  0
    9.0682  -14.6705   25.8180 C   0  0  0  0  0  0  0  0  0  0  0  0
    9.9659  -15.1080   24.6768 C   0  0  2  0  0  0  0  0  0  0  0  0
    9.1406  -15.4397   23.5329 N   0  0  0  0  0  0  0  0  0  0  0  0
   10.8170  -16.2474   25.0950 C   0  0  0  0  0  0  0  0  0  0  0  0
   10.2824  -17.3229   25.4601 O   0  0  0  0  0  0  0  0  0  0  0  0
   12.2179  -16.1081   25.0772 N   0  0  0  0  0  0  0  0  0  0  0  0
   13.1273  -17.1892   25.4360 C   0  0  0  0  0  0  0  0  0  0  0  0
   14.5299  -16.7586   25.3095 C   0  0  0  0  0  0  0  0  0  0  0  0
   14.7638  -15.6049   24.8655 O   0  0  0  0  0  0  0  0  0  0  0  0
   15.6075  -17.5347   25.6449 O   0  0  0  0  0  0  0  0  0  0  0  0
  1  2  1  0
  3  4  1  0
  3  2  1  0
  5  7  1  0
  5  6  1  1
  5  4  1  0
  7  8  2  0
  9 10  1  0
 10 12  1  0
 11 10  2  0
 12 13  1  0
 14 13  1  1
 14 16  1  0
 15 14  1  0
 15  7  1  0
 16 17  2  0
 16 18  1  0
 18 19  1  0
 19 20  1  0
 20 21  2  0
 20 22  1  0
M  END
$$$$
