MQG.pdb
     RDKit          3D

 22 21  0  0  1  0  0  0  0  0999 V2000
    7.3846  -10.9264   26.3274 C   0  0  0  0  0  0  0  0  0  0  0  0
    7.1911  -12.2094   27.5765 S   0  0  0  0  0  0  0  0  0  0  0  0
    6.4500  -13.7161   26.8550 C   0  0  0  0  0  0  0  0  0  0  0  0
    7.5407  -14.4217   26.0808 C   0  0  0  0  0  0  0  0  0  0  0  0
    6.8949  -15.5789   25.3496 C   0  0  2  0  0  0  0  0  0  0  0  0
    6.8325  -16.7419   26.2104 N   0  0  0  0  0  0  0  0  0  0  0  0
    7.5671  -15.9112   24.0897 C   0  0  0  0  0  0  0  0  0  0  0  0
    8.1311  -17.0245   23.9708 O   0  0  0  0  0  0  0  0  0  0  0  0
    7.2411  -12.5032   18.8409 N   0  0  0  0  0  0  0  0  0  0  0  0
    8.0067  -13.5940   18.3731 C   0  0  0  0  0  0  0  0  0  0  0  0
    8.3865  -13.6359   17.1883 O   0  0  0  0  0  0  0  0  0  0  0  0
    8.3536  -14.6846   19.2995 C   0  0  0  0  0  0  0  0  0  0  0  0
    7.7824  -14.3927   20.6493 C   0  0  0  0  0  0  0  0  0  0  0  0
    8.1666  -15.4350   21.6816 C   0  0  2  0  0  0  0  0  0  0  0  0
    7.6266  -15.0414   22.9673 N   0  0  0  0  0  0  0  0  0  0  0  0
    9.6390  -15.6014   21.7264 C   0  0  0  0  0  0  0  0  0  0  0  0
   10.2454  -16.0526   20.7243 O   0  0  0  0  0  0  0  0  0  0  0  0
   10.3400  -15.2502   22.8958 N   0  0  0  0  0  0  0  0  0  0  0  0
   11.7933  -15.1535   22.9507 C   0  0  0  0  0  0  0  0  0  0  0  0
   12.3946  -16.4614   23.2617 C   0  0  0  0  0  0  0  0  0  0  0  0
   11.6334  -17.4552   23.3869 O   0  0  0  0  0  0  0  0  0  0  0  0
   13.7380  -16.6725   23.4255 O   0  0  0  0  0  0  0  0  0  0  0  0
  1  2  1  0
  3  4  1  0
  3  2  1  0
  5  7  1  0
  5  6  1  1
  5  4  1  0
  7  8  2  0
  9 10  1  0
 10 12  1  0
 11 10  2  0
 12 13  1  0
 14 13  1  6
 14 16  1  0
 15 14  1  0
 15  7  1  0
 16 17  2  0
 16 18  1  0
 18 19  1  0
 19 20  1  0
 20 21  2  0
 20 22  1  0
M  END
$$$$
