MQG.pdb
     RDKit          3D

 22 21  0  0  1  0  0  0  0  0999 V2000
    7.9400  -11.4403   20.6434 C   0  0  0  0  0  0  0  0  0  0  0  0
    7.4295  -12.5538   19.3231 S   0  0  0  0  0  0  0  0  0  0  0  0
    7.8535  -14.2846   19.7288 C   0  0  0  0  0  0  0  0  0  0  0  0
    8.7814  -14.2475   20.9224 C   0  0  0  0  0  0  0  0  0  0  0  0
    9.0490  -15.6811   21.3272 C   0  0  2  0  0  0  0  0  0  0  0  0
    7.7996  -16.3876   21.5203 N   0  0  0  0  0  0  0  0  0  0  0  0
    9.8901  -15.7944   22.5228 C   0  0  0  0  0  0  0  0  0  0  0  0
   11.1359  -15.7172   22.4054 O   0  0  0  0  0  0  0  0  0  0  0  0
    8.8589  -13.5609   28.0159 N   0  0  0  0  0  0  0  0  0  0  0  0
    9.9721  -14.3635   28.3494 C   0  0  0  0  0  0  0  0  0  0  0  0
   10.4968  -14.2778   29.4752 O   0  0  0  0  0  0  0  0  0  0  0  0
   10.5095  -15.3052   27.3533 C   0  0  0  0  0  0  0  0  0  0  0  0
    9.7159  -15.2023   26.0912 C   0  0  0  0  0  0  0  0  0  0  0  0
   10.2279  -16.1280   25.0047 C   0  0  2  0  0  0  0  0  0  0  0  0
    9.3828  -15.9902   23.8358 N   0  0  0  0  0  0  0  0  0  0  0  0
   10.2725  -17.5265   25.4944 C   0  0  0  0  0  0  0  0  0  0  0  0
    9.2093  -18.1025   25.8314 O   0  0  0  0  0  0  0  0  0  0  0  0
   11.5103  -18.1924   25.5753 N   0  0  0  0  0  0  0  0  0  0  0  0
   11.6257  -19.6280   25.7996 C   0  0  0  0  0  0  0  0  0  0  0  0
   12.8889  -19.9522   26.4835 C   0  0  0  0  0  0  0  0  0  0  0  0
   13.7981  -19.0829   26.5044 O   0  0  0  0  0  0  0  0  0  0  0  0
   13.1448  -21.1461   27.1044 O   0  0  0  0  0  0  0  0  0  0  0  0
  1  2  1  0
  3  4  1  0
  3  2  1  0
  5  7  1  0
  5  6  1  1
  5  4  1  0
  7  8  2  0
  9 10  1  0
 10 12  1  0
 11 10  2  0
 12 13  1  0
 14 13  1  1
 14 16  1  0
 15 14  1  0
 15  7  1  0
 16 17  2  0
 16 18  1  0
 18 19  1  0
 19 20  1  0
 20 21  2  0
 20 22  1  0
M  END
$$$$
