MQG.pdb
     RDKit          3D

 22 21  0  0  1  0  0  0  0  0999 V2000
    6.6954  -12.3829   27.0989 C   0  0  0  0  0  0  0  0  0  0  0  0
    6.9711  -11.3588   25.6432 S   0  0  0  0  0  0  0  0  0  0  0  0
    7.1569  -12.3898   24.1458 C   0  0  0  0  0  0  0  0  0  0  0  0
    7.7163  -13.7228   24.5898 C   0  0  0  0  0  0  0  0  0  0  0  0
    7.9185  -14.5611   23.3459 C   0  0  2  0  0  0  0  0  0  0  0  0
    6.6508  -14.7857   22.6828 N   0  0  0  0  0  0  0  0  0  0  0  0
    8.5881  -15.8376   23.6143 C   0  0  0  0  0  0  0  0  0  0  0  0
    7.9005  -16.8337   23.9407 O   0  0  0  0  0  0  0  0  0  0  0  0
   14.1862  -18.4280   21.5963 N   0  0  0  0  0  0  0  0  0  0  0  0
   13.0497  -17.8334   21.0048 C   0  0  0  0  0  0  0  0  0  0  0  0
   13.1327  -17.2858   19.8899 O   0  0  0  0  0  0  0  0  0  0  0  0
   11.7622  -17.8659   21.7185 C   0  0  0  0  0  0  0  0  0  0  0  0
   11.9546  -17.3735   23.1163 C   0  0  0  0  0  0  0  0  0  0  0  0
   10.6499  -17.2734   23.8828 C   0  0  2  0  0  0  0  0  0  0  0  0
    9.9934  -16.0311   23.5290 N   0  0  0  0  0  0  0  0  0  0  0  0
   10.8969  -17.3739   25.3410 C   0  0  0  0  0  0  0  0  0  0  0  0
   11.3812  -16.3948   25.9595 O   0  0  0  0  0  0  0  0  0  0  0  0
   10.5843  -18.5696   26.0153 N   0  0  0  0  0  0  0  0  0  0  0  0
   10.6725  -18.7103   27.4634 C   0  0  0  0  0  0  0  0  0  0  0  0
   11.9459  -19.3392   27.8527 C   0  0  0  0  0  0  0  0  0  0  0  0
   12.7655  -19.6410   26.9472 O   0  0  0  0  0  0  0  0  0  0  0  0
   12.3029  -19.6209   29.1447 O   0  0  0  0  0  0  0  0  0  0  0  0
  1  2  1  0
  3  4  1  0
  3  2  1  0
  5  7  1  0
  5  6  1  1
  5  4  1  0
  7  8  2  0
  9 10  1  0
 10 12  1  0
 11 10  2  0
 12 13  1  0
 14 13  1  6
 14 16  1  0
 15 14  1  0
 15  7  1  0
 16 17  2  0
 16 18  1  0
 18 19  1  0
 19 20  1  0
 20 21  2  0
 20 22  1  0
M  END
$$$$
