MQG.pdb
     RDKit          3D

 22 21  0  0  1  0  0  0  0  0999 V2000
    7.0248  -11.0179   26.1750 C   0  0  0  0  0  0  0  0  0  0  0  0
    6.9668  -12.2024   27.5305 S   0  0  0  0  0  0  0  0  0  0  0  0
    6.0765  -13.7192   27.0337 C   0  0  0  0  0  0  0  0  0  0  0  0
    6.4078  -13.9740   25.5803 C   0  0  0  0  0  0  0  0  0  0  0  0
    7.2123  -15.2547   25.5216 C   0  0  2  0  0  0  0  0  0  0  0  0
    8.2919  -15.2117   26.4860 N   0  0  0  0  0  0  0  0  0  0  0  0
    7.7344  -15.5459   24.1828 C   0  0  0  0  0  0  0  0  0  0  0  0
    6.9866  -16.0943   23.3391 O   0  0  0  0  0  0  0  0  0  0  0  0
    7.4649  -12.8697   21.2233 N   0  0  0  0  0  0  0  0  0  0  0  0
    7.7568  -13.9823   20.4037 C   0  0  0  0  0  0  0  0  0  0  0  0
    6.8498  -14.5564   19.7732 O   0  0  0  0  0  0  0  0  0  0  0  0
    9.1457  -14.4600   20.3000 C   0  0  0  0  0  0  0  0  0  0  0  0
    9.8031  -14.3759   21.6395 C   0  0  0  0  0  0  0  0  0  0  0  0
    9.5915  -15.6262   22.4711 C   0  0  2  0  0  0  0  0  0  0  0  0
    9.0582  -15.2442   23.7631 N   0  0  0  0  0  0  0  0  0  0  0  0
   10.8588  -16.3850   22.5971 C   0  0  0  0  0  0  0  0  0  0  0  0
   11.3114  -17.0099   21.6070 O   0  0  0  0  0  0  0  0  0  0  0  0
   11.5401  -16.3949   23.8292 N   0  0  0  0  0  0  0  0  0  0  0  0
   11.5587  -17.5514   24.7161 C   0  0  0  0  0  0  0  0  0  0  0  0
   12.6265  -18.4900   24.3318 C   0  0  0  0  0  0  0  0  0  0  0  0
   12.8926  -19.4437   25.1080 O   0  0  0  0  0  0  0  0  0  0  0  0
   13.3568  -18.3954   23.1769 O   0  0  0  0  0  0  0  0  0  0  0  0
  1  2  1  0
  3  4  1  0
  3  2  1  0
  5  7  1  0
  5  6  1  1
  5  4  1  0
  7  8  2  0
  9 10  1  0
 10 12  1  0
 11 10  2  0
 12 13  1  0
 14 13  1  6
 14 16  1  0
 15 14  1  0
 15  7  1  0
 16 17  2  0
 16 18  1  0
 18 19  1  0
 19 20  1  0
 20 21  2  0
 20 22  1  0
M  END
$$$$
