MQG.pdb
     RDKit          3D

 22 21  0  0  1  0  0  0  0  0999 V2000
    8.0389  -11.5912   27.1874 C   0  0  0  0  0  0  0  0  0  0  0  0
    6.3294  -12.1057   26.9491 S   0  0  0  0  0  0  0  0  0  0  0  0
    6.1791  -13.9255   27.0253 C   0  0  0  0  0  0  0  0  0  0  0  0
    7.3306  -14.5009   26.2315 C   0  0  0  0  0  0  0  0  0  0  0  0
    6.7357  -15.2694   25.0712 C   0  0  2  0  0  0  0  0  0  0  0  0
    5.9990  -16.4176   25.5573 N   0  0  0  0  0  0  0  0  0  0  0  0
    7.7356  -15.6850   24.0827 C   0  0  0  0  0  0  0  0  0  0  0  0
    8.3016  -16.7961   24.2129 O   0  0  0  0  0  0  0  0  0  0  0  0
    8.8240  -12.9239   18.5968 N   0  0  0  0  0  0  0  0  0  0  0  0
    7.7403  -13.7910   18.8588 C   0  0  0  0  0  0  0  0  0  0  0  0
    6.7470  -13.8035   18.1085 O   0  0  0  0  0  0  0  0  0  0  0  0
    7.7940  -14.6829   20.0291 C   0  0  0  0  0  0  0  0  0  0  0  0
    9.0565  -14.4331   20.7887 C   0  0  0  0  0  0  0  0  0  0  0  0
    9.1640  -15.2883   22.0363 C   0  0  2  0  0  0  0  0  0  0  0  0
    8.1183  -14.9003   22.9612 N   0  0  0  0  0  0  0  0  0  0  0  0
   10.5124  -15.1588   22.6385 C   0  0  0  0  0  0  0  0  0  0  0  0
   10.6532  -14.5442   23.7239 O   0  0  0  0  0  0  0  0  0  0  0  0
   11.6207  -15.7284   21.9832 N   0  0  0  0  0  0  0  0  0  0  0  0
   12.3525  -16.8730   22.5113 C   0  0  0  0  0  0  0  0  0  0  0  0
   13.0311  -16.5258   23.7713 C   0  0  0  0  0  0  0  0  0  0  0  0
   12.4650  -16.8185   24.8561 O   0  0  0  0  0  0  0  0  0  0  0  0
   14.2474  -15.9002   23.8445 O   0  0  0  0  0  0  0  0  0  0  0  0
  1  2  1  0
  3  4  1  0
  3  2  1  0
  5  7  1  0
  5  6  1  1
  5  4  1  0
  7  8  2  0
  9 10  1  0
 10 12  1  0
 11 10  2  0
 12 13  1  0
 14 13  1  6
 14 16  1  0
 15 14  1  0
 15  7  1  0
 16 17  2  0
 16 18  1  0
 18 19  1  0
 19 20  1  0
 20 21  2  0
 20 22  1  0
M  END
$$$$
