GYD.pdb
     RDKit          3D

 25 25  0  0  1  0  0  0  0  0999 V2000
    6.7698  -14.6310   19.4855 N   0  0  0  0  0  0  0  0  0  0  0  0
    6.4691  -15.2603   20.7313 C   0  0  0  0  0  0  0  0  0  0  0  0
    7.4868  -14.9156   21.7878 C   0  0  0  0  0  0  0  0  0  0  0  0
    8.5840  -14.3974   21.4755 O   0  0  0  0  0  0  0  0  0  0  0  0
   10.9064  -14.4486   30.0514 O   0  0  0  0  0  0  0  0  0  0  0  0
   10.0534  -14.5591   28.9396 C   0  0  0  0  0  0  0  0  0  0  0  0
    9.7475  -15.7920   28.4432 C   0  0  0  0  0  0  0  0  0  0  0  0
    8.9096  -15.9060   27.3502 C   0  0  0  0  0  0  0  0  0  0  0  0
    8.3619  -14.8030   26.7325 C   0  0  0  0  0  0  0  0  0  0  0  0
    7.4777  -14.9048   25.5784 C   0  0  0  0  0  0  0  0  0  0  0  0
    8.1506  -14.8965   24.2426 C   0  0  2  0  0  0  0  0  0  0  0  0
    7.2332  -15.1666   23.1588 N   0  0  0  0  0  0  0  0  0  0  0  0
    9.1982  -15.9626   24.2468 C   0  0  0  0  0  0  0  0  0  0  0  0
    8.8745  -17.1677   24.1096 O   0  0  0  0  0  0  0  0  0  0  0  0
    8.6778  -13.5628   27.2427 C   0  0  0  0  0  0  0  0  0  0  0  0
    9.5249  -13.4379   28.3478 C   0  0  0  0  0  0  0  0  0  0  0  0
   10.5769  -15.6700   24.4021 N   0  0  0  0  0  0  0  0  0  0  0  0
   11.5597  -16.6757   24.1236 C   0  0  1  0  0  0  0  0  0  0  0  0
   12.7707  -16.1206   23.4052 C   0  0  0  0  0  0  0  0  0  0  0  0
   13.6578  -17.2556   23.0748 C   0  0  0  0  0  0  0  0  0  0  0  0
   13.3205  -18.1327   22.2537 O   0  0  0  0  0  0  0  0  0  0  0  0
   11.9511  -17.3827   25.3641 C   0  0  0  0  0  0  0  0  0  0  0  0
   12.0758  -16.7420   26.4305 O   0  0  0  0  0  0  0  0  0  0  0  0
   14.8892  -17.3478   23.6891 O   0  0  0  0  0  0  0  0  0  0  0  0
   12.1712  -18.7435   25.3118 O   0  0  0  0  0  0  0  0  0  0  0  0
  1  2  1  0
  3  4  2  0
  3  2  1  0
  6  5  1  0
  7  6  2  0
  8  7  1  0
  9  8  2  0
  9 15  1  0
 11 10  1  1
 10  9  1  0
 11 12  1  0
 12  3  1  0
 13 17  1  0
 13 11  1  0
 14 13  2  0
 15 16  2  0
 16  6  1  0
 18 22  1  0
 18 17  1  0
 18 19  1  1
 19 20  1  0
 20 21  2  0
 22 25  1  0
 23 22  2  0
 24 20  1  0
M  END
$$$$
