GYD.pdb
     RDKit          3D

 25 25  0  0  1  0  0  0  0  0999 V2000
    9.6410  -16.8396   18.0401 N   0  0  0  0  0  0  0  0  0  0  0  0
    8.4989  -16.7731   18.8943 C   0  0  0  0  0  0  0  0  0  0  0  0
    8.8187  -16.0870   20.1972 C   0  0  0  0  0  0  0  0  0  0  0  0
   10.0066  -15.9262   20.5619 O   0  0  0  0  0  0  0  0  0  0  0  0
    7.1005  -12.0391   27.9948 O   0  0  0  0  0  0  0  0  0  0  0  0
    7.0111  -12.5986   26.7084 C   0  0  0  0  0  0  0  0  0  0  0  0
    6.5426  -13.8705   26.5565 C   0  0  0  0  0  0  0  0  0  0  0  0
    6.4529  -14.4252   25.2940 C   0  0  0  0  0  0  0  0  0  0  0  0
    6.8248  -13.7307   24.1637 C   0  0  0  0  0  0  0  0  0  0  0  0
    6.7382  -14.3006   22.8250 C   0  0  0  0  0  0  0  0  0  0  0  0
    7.9914  -14.9306   22.3056 C   0  0  2  0  0  0  0  0  0  0  0  0
    7.7896  -15.6060   21.0437 N   0  0  0  0  0  0  0  0  0  0  0  0
    8.4513  -15.9388   23.3086 C   0  0  0  0  0  0  0  0  0  0  0  0
    7.9513  -17.0902   23.3230 O   0  0  0  0  0  0  0  0  0  0  0  0
    7.2965  -12.4469   24.3294 C   0  0  0  0  0  0  0  0  0  0  0  0
    7.3910  -11.8777   25.6028 C   0  0  0  0  0  0  0  0  0  0  0  0
    9.4524  -15.6492   24.2702 N   0  0  0  0  0  0  0  0  0  0  0  0
   10.2208  -16.7123   24.8485 C   0  0  1  0  0  0  0  0  0  0  0  0
   11.6488  -16.7353   24.3476 C   0  0  0  0  0  0  0  0  0  0  0  0
   12.3049  -17.9331   24.9123 C   0  0  0  0  0  0  0  0  0  0  0  0
   11.6732  -18.9893   25.1190 O   0  0  0  0  0  0  0  0  0  0  0  0
   10.1733  -16.6481   26.3268 C   0  0  0  0  0  0  0  0  0  0  0  0
   10.0129  -15.5461   26.8953 O   0  0  0  0  0  0  0  0  0  0  0  0
   13.6488  -17.8828   25.2182 O   0  0  0  0  0  0  0  0  0  0  0  0
   10.3093  -17.8167   27.0471 O   0  0  0  0  0  0  0  0  0  0  0  0
  1  2  1  0
  3  4  2  0
  3  2  1  0
  6  5  1  0
  7  6  2  0
  8  7  1  0
  9  8  2  0
  9 15  1  0
 11 10  1  1
 10  9  1  0
 11 12  1  0
 12  3  1  0
 13 17  1  0
 13 11  1  0
 14 13  2  0
 15 16  2  0
 16  6  1  0
 18 22  1  0
 18 17  1  0
 18 19  1  1
 19 20  1  0
 20 21  2  0
 22 25  1  0
 23 22  2  0
 24 20  1  0
M  END
$$$$
