GYD.pdb
     RDKit          3D

 25 25  0  0  1  0  0  0  0  0999 V2000
    8.1510  -20.3068   19.0035 N   0  0  0  0  0  0  0  0  0  0  0  0
    8.0298  -19.6243   20.2516 C   0  0  0  0  0  0  0  0  0  0  0  0
    9.0146  -18.4891   20.3621 C   0  0  0  0  0  0  0  0  0  0  0  0
    9.8688  -18.2927   19.4667 O   0  0  0  0  0  0  0  0  0  0  0  0
    6.4093  -12.3701   18.1452 O   0  0  0  0  0  0  0  0  0  0  0  0
    7.0930  -13.0924   19.1385 C   0  0  0  0  0  0  0  0  0  0  0  0
    8.1371  -12.5124   19.7970 C   0  0  0  0  0  0  0  0  0  0  0  0
    8.8126  -13.2184   20.7742 C   0  0  0  0  0  0  0  0  0  0  0  0
    8.4657  -14.5075   21.1147 C   0  0  0  0  0  0  0  0  0  0  0  0
    9.1680  -15.2670   22.1415 C   0  0  0  0  0  0  0  0  0  0  0  0
    9.8885  -16.4885   21.6663 C   0  0  2  0  0  0  0  0  0  0  0  0
    9.0030  -17.6151   21.4770 N   0  0  0  0  0  0  0  0  0  0  0  0
   10.9026  -16.8579   22.7003 C   0  0  0  0  0  0  0  0  0  0  0  0
   10.5351  -17.2726   23.8267 O   0  0  0  0  0  0  0  0  0  0  0  0
    7.4095  -15.0831   20.4429 C   0  0  0  0  0  0  0  0  0  0  0  0
    6.7205  -14.3766   19.4527 C   0  0  0  0  0  0  0  0  0  0  0  0
   12.2972  -16.7600   22.4632 N   0  0  0  0  0  0  0  0  0  0  0  0
   13.2273  -17.1553   23.4798 C   0  0  1  0  0  0  0  0  0  0  0  0
   14.4704  -17.8031   22.9090 C   0  0  0  0  0  0  0  0  0  0  0  0
   14.2433  -19.2630   22.8769 C   0  0  0  0  0  0  0  0  0  0  0  0
   13.1840  -19.7702   23.2988 O   0  0  0  0  0  0  0  0  0  0  0  0
   13.5730  -16.0071   24.3482 C   0  0  0  0  0  0  0  0  0  0  0  0
   13.4723  -16.1156   25.5896 O   0  0  0  0  0  0  0  0  0  0  0  0
   15.2263  -20.0857   22.3679 O   0  0  0  0  0  0  0  0  0  0  0  0
   14.0008  -14.8349   23.7603 O   0  0  0  0  0  0  0  0  0  0  0  0
  1  2  1  0
  3  4  2  0
  3  2  1  0
  6  5  1  0
  7  6  2  0
  8  7  1  0
  9  8  2  0
  9 15  1  0
 11 10  1  1
 10  9  1  0
 11 12  1  0
 12  3  1  0
 13 17  1  0
 13 11  1  0
 14 13  2  0
 15 16  2  0
 16  6  1  0
 18 22  1  0
 18 17  1  0
 18 19  1  6
 19 20  1  0
 20 21  2  0
 22 25  1  0
 23 22  2  0
 24 20  1  0
M  END
$$$$
