GYD.pdb
     RDKit          3D

 25 25  0  0  1  0  0  0  0  0999 V2000
    9.7432  -16.9100   18.3054 N   0  0  0  0  0  0  0  0  0  0  0  0
    8.6037  -16.7692   19.1540 C   0  0  0  0  0  0  0  0  0  0  0  0
    8.9288  -15.9774   20.3941 C   0  0  0  0  0  0  0  0  0  0  0  0
   10.1175  -15.7273   20.7011 O   0  0  0  0  0  0  0  0  0  0  0  0
    7.2991  -11.8196   28.1568 O   0  0  0  0  0  0  0  0  0  0  0  0
    7.1917  -12.4149   26.8880 C   0  0  0  0  0  0  0  0  0  0  0  0
    7.7286  -11.7895   25.8012 C   0  0  0  0  0  0  0  0  0  0  0  0
    7.6255  -12.3704   24.5516 C   0  0  0  0  0  0  0  0  0  0  0  0
    6.9905  -13.5777   24.3582 C   0  0  0  0  0  0  0  0  0  0  0  0
    6.8714  -14.2038   23.0475 C   0  0  0  0  0  0  0  0  0  0  0  0
    8.1103  -14.8609   22.5273 C   0  0  2  0  0  0  0  0  0  0  0  0
    7.9039  -15.4952   21.2450 N   0  0  0  0  0  0  0  0  0  0  0  0
    8.5230  -15.9103   23.5083 C   0  0  0  0  0  0  0  0  0  0  0  0
    7.8707  -16.9786   23.6035 O   0  0  0  0  0  0  0  0  0  0  0  0
    6.4521  -14.2002   25.4631 C   0  0  0  0  0  0  0  0  0  0  0  0
    6.5513  -13.6198   26.7311 C   0  0  0  0  0  0  0  0  0  0  0  0
    9.6465  -15.7527   24.3591 N   0  0  0  0  0  0  0  0  0  0  0  0
   10.0301  -16.8126   25.2448 C   0  0  1  0  0  0  0  0  0  0  0  0
   11.4989  -17.1599   25.1323 C   0  0  0  0  0  0  0  0  0  0  0  0
   11.7044  -17.8326   23.8326 C   0  0  0  0  0  0  0  0  0  0  0  0
   11.0451  -18.8403   23.5056 O   0  0  0  0  0  0  0  0  0  0  0  0
    9.6629  -16.4864   26.6414 C   0  0  0  0  0  0  0  0  0  0  0  0
    9.2478  -15.3410   26.9224 O   0  0  0  0  0  0  0  0  0  0  0  0
   12.6482  -17.3342   22.9590 O   0  0  0  0  0  0  0  0  0  0  0  0
    9.7898  -17.4632   27.6070 O   0  0  0  0  0  0  0  0  0  0  0  0
  1  2  1  0
  3  4  2  0
  3  2  1  0
  6  5  1  0
  7  6  2  0
  8  7  1  0
  9  8  2  0
  9 15  1  0
 11 10  1  1
 10  9  1  0
 11 12  1  0
 12  3  1  0
 13 17  1  0
 13 11  1  0
 14 13  2  0
 15 16  2  0
 16  6  1  0
 18 22  1  0
 18 17  1  0
 18 19  1  1
 19 20  1  0
 20 21  2  0
 22 25  1  0
 23 22  2  0
 24 20  1  0
M  END
$$$$
