GYD.pdb
     RDKit          3D

 25 25  0  0  1  0  0  0  0  0999 V2000
    8.0447  -13.0116   17.9326 N   0  0  0  0  0  0  0  0  0  0  0  0
    7.3334  -13.8661   18.8283 C   0  0  0  0  0  0  0  0  0  0  0  0
    7.9671  -13.8892   20.1952 C   0  0  0  0  0  0  0  0  0  0  0  0
    9.1934  -13.6744   20.3365 O   0  0  0  0  0  0  0  0  0  0  0  0
    8.2496  -13.7449   29.1210 O   0  0  0  0  0  0  0  0  0  0  0  0
    7.8401  -13.7838   27.7769 C   0  0  0  0  0  0  0  0  0  0  0  0
    7.3558  -14.9458   27.2520 C   0  0  0  0  0  0  0  0  0  0  0  0
    6.9521  -14.9893   25.9311 C   0  0  0  0  0  0  0  0  0  0  0  0
    7.0210  -13.8849   25.1102 C   0  0  0  0  0  0  0  0  0  0  0  0
    6.6010  -13.9134   23.7149 C   0  0  0  0  0  0  0  0  0  0  0  0
    7.6921  -14.1196   22.7128 C   0  0  2  0  0  0  0  0  0  0  0  0
    7.1977  -14.1535   21.3550 N   0  0  0  0  0  0  0  0  0  0  0  0
    8.3466  -15.4309   23.0063 C   0  0  0  0  0  0  0  0  0  0  0  0
    7.7636  -16.5060   22.7235 O   0  0  0  0  0  0  0  0  0  0  0  0
    7.5117  -12.7168   25.6513 C   0  0  0  0  0  0  0  0  0  0  0  0
    7.9227  -12.6636   26.9865 C   0  0  0  0  0  0  0  0  0  0  0  0
    9.6291  -15.5208   23.6044 N   0  0  0  0  0  0  0  0  0  0  0  0
   10.2023  -16.8048   23.8834 C   0  0  1  0  0  0  0  0  0  0  0  0
   11.6415  -16.9095   23.4267 C   0  0  0  0  0  0  0  0  0  0  0  0
   11.6397  -17.0161   21.9527 C   0  0  0  0  0  0  0  0  0  0  0  0
   11.0034  -17.9125   21.3620 O   0  0  0  0  0  0  0  0  0  0  0  0
   10.0716  -17.1354   25.3205 C   0  0  0  0  0  0  0  0  0  0  0  0
    9.7887  -16.2353   26.1410 O   0  0  0  0  0  0  0  0  0  0  0  0
   12.3588  -16.1021   21.2113 O   0  0  0  0  0  0  0  0  0  0  0  0
   10.2678  -18.4402   25.7225 O   0  0  0  0  0  0  0  0  0  0  0  0
  1  2  1  0
  3  4  2  0
  3  2  1  0
  6  5  1  0
  7  6  2  0
  8  7  1  0
  9  8  2  0
  9 15  1  0
 11 10  1  1
 10  9  1  0
 11 12  1  0
 12  3  1  0
 13 17  1  0
 13 11  1  0
 14 13  2  0
 15 16  2  0
 16  6  1  0
 18 22  1  0
 18 17  1  0
 18 19  1  1
 19 20  1  0
 20 21  2  0
 22 25  1  0
 23 22  2  0
 24 20  1  0
M  END
$$$$
