GYD.pdb
     RDKit          3D

 25 25  0  0  1  0  0  0  0  0999 V2000
    5.2871  -16.2498   20.4169 N   0  0  0  0  0  0  0  0  0  0  0  0
    5.5359  -16.7732   21.7217 C   0  0  0  0  0  0  0  0  0  0  0  0
    6.7583  -16.1514   22.3461 C   0  0  0  0  0  0  0  0  0  0  0  0
    7.5120  -15.4079   21.6760 O   0  0  0  0  0  0  0  0  0  0  0  0
    5.7560  -10.2283   26.3736 O   0  0  0  0  0  0  0  0  0  0  0  0
    6.2938  -11.5190   26.2287 C   0  0  0  0  0  0  0  0  0  0  0  0
    5.5136  -12.6080   26.4847 C   0  0  0  0  0  0  0  0  0  0  0  0
    6.0376  -13.8790   26.3440 C   0  0  0  0  0  0  0  0  0  0  0  0
    7.3400  -14.0917   25.9481 C   0  0  0  0  0  0  0  0  0  0  0  0
    7.9092  -15.4248   25.7960 C   0  0  0  0  0  0  0  0  0  0  0  0
    8.2317  -15.8366   24.3947 C   0  0  2  0  0  0  0  0  0  0  0  0
    7.0889  -16.3887   23.7030 N   0  0  0  0  0  0  0  0  0  0  0  0
    9.2949  -16.8854   24.4549 C   0  0  0  0  0  0  0  0  0  0  0  0
    9.0032  -18.0641   24.7737 O   0  0  0  0  0  0  0  0  0  0  0  0
    8.1186  -12.9842   25.6923 C   0  0  0  0  0  0  0  0  0  0  0  0
    7.5970  -11.6946   25.8323 C   0  0  0  0  0  0  0  0  0  0  0  0
   10.6534  -16.6053   24.1609 N   0  0  0  0  0  0  0  0  0  0  0  0
   11.6333  -17.6492   24.2332 C   0  0  1  0  0  0  0  0  0  0  0  0
   12.9151  -17.2931   23.5115 C   0  0  0  0  0  0  0  0  0  0  0  0
   12.5835  -17.0691   22.0888 C   0  0  0  0  0  0  0  0  0  0  0  0
   11.7910  -17.8134   21.4763 O   0  0  0  0  0  0  0  0  0  0  0  0
   11.8980  -18.0218   25.6414 C   0  0  0  0  0  0  0  0  0  0  0  0
   12.6371  -18.9974   25.8966 O   0  0  0  0  0  0  0  0  0  0  0  0
   13.1641  -16.0111   21.4213 O   0  0  0  0  0  0  0  0  0  0  0  0
   11.3164  -17.2769   26.6462 O   0  0  0  0  0  0  0  0  0  0  0  0
  1  2  1  0
  3  4  2  0
  3  2  1  0
  6  5  1  0
  7  6  2  0
  8  7  1  0
  9  8  2  0
  9 15  1  0
 11 10  1  1
 10  9  1  0
 11 12  1  0
 12  3  1  0
 13 17  1  0
 13 11  1  0
 14 13  2  0
 15 16  2  0
 16  6  1  0
 18 22  1  0
 18 17  1  0
 18 19  1  1
 19 20  1  0
 20 21  2  0
 22 25  1  0
 23 22  2  0
 24 20  1  0
M  END
$$$$
