GYD.pdb
     RDKit          3D

 25 25  0  0  1  0  0  0  0  0999 V2000
    7.3183  -14.9243   18.8244 N   0  0  0  0  0  0  0  0  0  0  0  0
    6.7175  -15.2014   20.0896 C   0  0  0  0  0  0  0  0  0  0  0  0
    7.6721  -14.9434   21.2265 C   0  0  0  0  0  0  0  0  0  0  0  0
    8.9047  -14.8538   21.0202 O   0  0  0  0  0  0  0  0  0  0  0  0
   10.1792  -14.0714   29.7806 O   0  0  0  0  0  0  0  0  0  0  0  0
    9.4536  -14.1138   28.5774 C   0  0  0  0  0  0  0  0  0  0  0  0
    9.0592  -15.3164   28.0689 C   0  0  0  0  0  0  0  0  0  0  0  0
    8.3459  -15.3635   26.8863 C   0  0  0  0  0  0  0  0  0  0  0  0
    8.0119  -14.2228   26.1895 C   0  0  0  0  0  0  0  0  0  0  0  0
    7.2615  -14.2542   24.9405 C   0  0  0  0  0  0  0  0  0  0  0  0
    8.0420  -14.6395   23.7241 C   0  0  2  0  0  0  0  0  0  0  0  0
    7.2052  -14.7953   22.5558 N   0  0  0  0  0  0  0  0  0  0  0  0
    8.7107  -15.9474   23.9997 C   0  0  0  0  0  0  0  0  0  0  0  0
    8.1392  -17.0249   23.7022 O   0  0  0  0  0  0  0  0  0  0  0  0
    8.4156  -13.0139   26.7127 C   0  0  0  0  0  0  0  0  0  0  0  0
    9.1379  -12.9566   27.9083 C   0  0  0  0  0  0  0  0  0  0  0  0
    9.9941  -16.0317   24.5966 N   0  0  0  0  0  0  0  0  0  0  0  0
   10.9099  -17.0559   24.1876 C   0  0  1  0  0  0  0  0  0  0  0  0
   11.6997  -16.6700   22.9556 C   0  0  0  0  0  0  0  0  0  0  0  0
   12.5948  -17.7979   22.6229 C   0  0  0  0  0  0  0  0  0  0  0  0
   13.8355  -17.6976   22.7126 O   0  0  0  0  0  0  0  0  0  0  0  0
   11.8080  -17.4309   25.3032 C   0  0  0  0  0  0  0  0  0  0  0  0
   12.6246  -18.3660   25.1549 O   0  0  0  0  0  0  0  0  0  0  0  0
   12.0456  -18.9913   22.2030 O   0  0  0  0  0  0  0  0  0  0  0  0
   11.7202  -16.7332   26.4900 O   0  0  0  0  0  0  0  0  0  0  0  0
  1  2  1  0
  3  4  2  0
  3  2  1  0
  6  5  1  0
  7  6  2  0
  8  7  1  0
  9  8  2  0
  9 15  1  0
 11 10  1  1
 10  9  1  0
 11 12  1  0
 12  3  1  0
 13 17  1  0
 13 11  1  0
 14 13  2  0
 15 16  2  0
 16  6  1  0
 18 22  1  0
 18 17  1  0
 18 19  1  6
 19 20  1  0
 20 21  2  0
 22 25  1  0
 23 22  2  0
 24 20  1  0
M  END
$$$$
