GYD.pdb
     RDKit          3D

 25 25  0  0  1  0  0  0  0  0999 V2000
    4.4473  -18.0282   21.7013 N   0  0  0  0  0  0  0  0  0  0  0  0
    5.0624  -18.0227   22.9897 C   0  0  0  0  0  0  0  0  0  0  0  0
    6.2749  -17.1287   23.0228 C   0  0  0  0  0  0  0  0  0  0  0  0
    6.7540  -16.6595   21.9644 O   0  0  0  0  0  0  0  0  0  0  0  0
    5.5179  -10.3956   26.4117 O   0  0  0  0  0  0  0  0  0  0  0  0
    6.1787  -11.6252   26.2471 C   0  0  0  0  0  0  0  0  0  0  0  0
    7.2017  -11.7273   25.3508 C   0  0  0  0  0  0  0  0  0  0  0  0
    7.8544  -12.9340   25.1851 C   0  0  0  0  0  0  0  0  0  0  0  0
    7.5055  -14.0570   25.9030 C   0  0  0  0  0  0  0  0  0  0  0  0
    8.1821  -15.3376   25.7400 C   0  0  0  0  0  0  0  0  0  0  0  0
    8.0769  -15.9590   24.3835 C   0  0  2  0  0  0  0  0  0  0  0  0
    6.9056  -16.7946   24.2466 N   0  0  0  0  0  0  0  0  0  0  0  0
    9.2872  -16.8097   24.1704 C   0  0  0  0  0  0  0  0  0  0  0  0
    9.3136  -17.9901   24.5969 O   0  0  0  0  0  0  0  0  0  0  0  0
    6.4708  -13.9420   26.8054 C   0  0  0  0  0  0  0  0  0  0  0  0
    5.8046  -12.7253   26.9795 C   0  0  0  0  0  0  0  0  0  0  0  0
   10.4376  -16.3347   23.4909 N   0  0  0  0  0  0  0  0  0  0  0  0
   11.5747  -17.1907   23.3203 C   0  0  1  0  0  0  0  0  0  0  0  0
   12.3344  -16.8990   22.0441 C   0  0  0  0  0  0  0  0  0  0  0  0
   11.6036  -17.5368   20.9292 C   0  0  0  0  0  0  0  0  0  0  0  0
   11.2155  -18.7211   20.9933 O   0  0  0  0  0  0  0  0  0  0  0  0
   12.4651  -17.1198   24.5010 C   0  0  0  0  0  0  0  0  0  0  0  0
   13.4668  -17.8649   24.5684 O   0  0  0  0  0  0  0  0  0  0  0  0
   11.3436  -16.8051   19.7893 O   0  0  0  0  0  0  0  0  0  0  0  0
   12.1639  -16.2256   25.5073 O   0  0  0  0  0  0  0  0  0  0  0  0
  1  2  1  0
  3  4  2  0
  3  2  1  0
  6  5  1  0
  7  6  2  0
  8  7  1  0
  9  8  2  0
  9 15  1  0
 11 10  1  1
 10  9  1  0
 11 12  1  0
 12  3  1  0
 13 17  1  0
 13 11  1  0
 14 13  2  0
 15 16  2  0
 16  6  1  0
 18 22  1  0
 18 17  1  0
 18 19  1  6
 19 20  1  0
 20 21  2  0
 22 25  1  0
 23 22  2  0
 24 20  1  0
M  END
$$$$
