DFC.pdb
     RDKit          3D

 26 26  0  0  1  0  0  0  0  0999 V2000
   35.0281  -28.3375  -17.6533 N   0  0  0  0  0  0  0  0  0  0  0  0
   34.0904  -28.4110  -18.7943 C   0  0  1  0  0  0  0  0  0  0  0  0
   34.3183  -29.7631  -19.4329 C   0  0  0  0  0  0  0  0  0  0  0  0
   35.5960  -29.8693  -20.1393 C   0  0  0  0  0  0  0  0  0  0  0  0
   36.3715  -30.8019  -19.8384 O   0  0  0  0  0  0  0  0  0  0  0  0
   32.7420  -28.4310  -18.1618 C   0  0  0  0  0  0  0  0  0  0  0  0
   32.6640  -28.9565  -17.0156 O   0  0  0  0  0  0  0  0  0  0  0  0
   35.9865  -28.9856  -21.1219 O   0  0  0  0  0  0  0  0  0  0  0  0
   31.5705  -27.9105  -18.7502 N   0  0  0  0  0  0  0  0  0  0  0  0
   30.2746  -27.8249  -18.0652 C   0  0  1  0  0  0  0  0  0  0  0  0
   29.7528  -26.4480  -18.0732 C   0  0  0  0  0  0  0  0  0  0  0  0
   28.3405  -26.2368  -17.7341 C   0  0  0  0  0  0  0  0  0  0  0  0
   27.8949  -26.2316  -16.4129 C   0  0  0  0  0  0  0  0  0  0  0  0
   26.5988  -25.9944  -16.0856 C   0  0  0  0  0  0  0  0  0  0  0  0
   25.6626  -25.7449  -17.0860 C   0  0  0  0  0  0  0  0  0  0  0  0
   26.0920  -25.7475  -18.3971 C   0  0  0  0  0  0  0  0  0  0  0  0
   27.3937  -25.9878  -18.6943 C   0  0  0  0  0  0  0  0  0  0  0  0
   29.3884  -28.8946  -18.5124 C   0  0  0  0  0  0  0  0  0  0  0  0
   29.4248  -29.1779  -19.7674 O   0  0  0  0  0  0  0  0  0  0  0  0
   28.4953  -29.6752  -17.7643 N   0  0  0  0  0  0  0  0  0  0  0  0
   27.6730  -30.7214  -18.3721 C   0  0  1  0  0  0  0  0  0  0  0  0
   28.3160  -32.0828  -18.1807 C   0  0  0  0  0  0  0  0  0  0  0  0
   29.5041  -32.3149  -19.5323 S   0  0  0  0  0  0  0  0  0  0  0  0
   26.3429  -30.7469  -17.7560 C   0  0  0  0  0  0  0  0  0  0  0  0
   26.0383  -29.9783  -16.6188 O   0  0  0  0  0  0  0  0  0  0  0  0
   25.4344  -31.4543  -18.2224 O   0  0  0  0  0  0  0  0  0  0  0  0
  2  1  1  1
  2  6  1  0
  2  3  1  0
  3  4  1  0
  4  5  2  0
  6  7  2  0
  8  4  1  0
  9 10  1  0
  9  6  1  0
 10 18  1  0
 11 12  1  0
 10 11  1  6
 12 17  2  0
 13 14  2  0
 13 12  1  0
 14 15  1  0
 15 16  2  0
 17 16  1  0
 18 19  2  0
 20 21  1  0
 20 18  1  0
 21 24  1  0
 21 22  1  1
 23 22  1  0
 24 26  2  0
 24 25  1  0
M  END
$$$$
