DFC.pdb
     RDKit          3D

 26 26  0  0  1  0  0  0  0  0999 V2000
   25.9441  -22.2699  -13.0636 N   0  0  0  0  0  0  0  0  0  0  0  0
   26.0883  -20.9110  -12.4987 C   0  0  1  0  0  0  0  0  0  0  0  0
   24.8007  -20.1870  -12.8240 C   0  0  0  0  0  0  0  0  0  0  0  0
   24.6571  -19.8560  -14.2426 C   0  0  0  0  0  0  0  0  0  0  0  0
   25.6166  -19.3135  -14.8315 O   0  0  0  0  0  0  0  0  0  0  0  0
   26.1261  -21.1270  -11.0254 C   0  0  0  0  0  0  0  0  0  0  0  0
   25.4245  -22.0767  -10.5760 O   0  0  0  0  0  0  0  0  0  0  0  0
   23.5100  -20.1131  -14.9613 O   0  0  0  0  0  0  0  0  0  0  0  0
   26.8809  -20.3537  -10.1188 N   0  0  0  0  0  0  0  0  0  0  0  0
   26.9239  -20.5935   -8.6709 C   0  0  1  0  0  0  0  0  0  0  0  0
   28.1356  -20.0151   -8.0665 C   0  0  0  0  0  0  0  0  0  0  0  0
   28.2254  -19.9609   -6.6026 C   0  0  0  0  0  0  0  0  0  0  0  0
   27.9380  -18.7965   -5.8914 C   0  0  0  0  0  0  0  0  0  0  0  0
   27.9759  -18.7471   -4.5351 C   0  0  0  0  0  0  0  0  0  0  0  0
   28.3106  -19.8854   -3.8061 C   0  0  0  0  0  0  0  0  0  0  0  0
   28.5970  -21.0435   -4.4991 C   0  0  0  0  0  0  0  0  0  0  0  0
   28.5512  -21.0632   -5.8548 C   0  0  0  0  0  0  0  0  0  0  0  0
   25.6368  -20.2746   -8.0616 C   0  0  0  0  0  0  0  0  0  0  0  0
   25.1333  -19.1283   -8.3597 O   0  0  0  0  0  0  0  0  0  0  0  0
   24.8533  -21.0471   -7.1921 N   0  0  0  0  0  0  0  0  0  0  0  0
   23.6019  -20.5518   -6.6189 C   0  0  1  0  0  0  0  0  0  0  0  0
   22.4344  -20.8663   -7.5364 C   0  0  0  0  0  0  0  0  0  0  0  0
   22.3180  -22.6725   -7.6642 S   0  0  0  0  0  0  0  0  0  0  0  0
   23.3518  -21.1820   -5.3189 C   0  0  0  0  0  0  0  0  0  0  0  0
   22.1921  -20.9071   -4.5732 O   0  0  0  0  0  0  0  0  0  0  0  0
   24.1632  -21.9858   -4.8302 O   0  0  0  0  0  0  0  0  0  0  0  0
  2  1  1  6
  2  6  1  0
  2  3  1  0
  3  4  1  0
  4  5  2  0
  6  7  2  0
  8  4  1  0
  9 10  1  0
  9  6  1  0
 10 18  1  0
 11 12  1  0
 10 11  1  1
 12 17  2  0
 13 14  2  0
 13 12  1  0
 14 15  1  0
 15 16  2  0
 17 16  1  0
 18 19  2  0
 20 21  1  0
 20 18  1  0
 21 24  1  0
 21 22  1  6
 23 22  1  0
 24 26  2  0
 24 25  1  0
M  END
$$$$
