DFC.pdb
     RDKit          3D

 26 26  0  0  1  0  0  0  0  0999 V2000
   27.4523  -21.3765  -16.7178 N   0  0  0  0  0  0  0  0  0  0  0  0
   26.9839  -22.7752  -16.6125 C   0  0  1  0  0  0  0  0  0  0  0  0
   28.1740  -23.5770  -16.1345 C   0  0  0  0  0  0  0  0  0  0  0  0
   29.2574  -23.6587  -17.1156 C   0  0  0  0  0  0  0  0  0  0  0  0
   29.1175  -23.0768  -18.2127 O   0  0  0  0  0  0  0  0  0  0  0  0
   25.9847  -22.7464  -15.5081 C   0  0  0  0  0  0  0  0  0  0  0  0
   25.4965  -23.8583  -15.1597 O   0  0  0  0  0  0  0  0  0  0  0  0
   30.4269  -24.3506  -16.8870 O   0  0  0  0  0  0  0  0  0  0  0  0
   25.5582  -21.5794  -14.8404 N   0  0  0  0  0  0  0  0  0  0  0  0
   24.6065  -21.5734  -13.7224 C   0  0  1  0  0  0  0  0  0  0  0  0
   25.0588  -20.6871  -12.6369 C   0  0  0  0  0  0  0  0  0  0  0  0
   24.2332  -20.5905  -11.4274 C   0  0  0  0  0  0  0  0  0  0  0  0
   24.6632  -21.0978  -10.2018 C   0  0  0  0  0  0  0  0  0  0  0  0
   23.9266  -20.9757   -9.0678 C   0  0  0  0  0  0  0  0  0  0  0  0
   22.6956  -20.3255   -9.1038 C   0  0  0  0  0  0  0  0  0  0  0  0
   22.2599  -19.8195  -10.3111 C   0  0  0  0  0  0  0  0  0  0  0  0
   23.0173  -19.9565  -11.4282 C   0  0  0  0  0  0  0  0  0  0  0  0
   23.2420  -21.4116  -14.2135 C   0  0  0  0  0  0  0  0  0  0  0  0
   23.0242  -20.3904  -14.9660 O   0  0  0  0  0  0  0  0  0  0  0  0
   22.1184  -22.2201  -13.9887 N   0  0  0  0  0  0  0  0  0  0  0  0
   20.7918  -21.8746  -14.4994 C   0  0  1  0  0  0  0  0  0  0  0  0
   20.2198  -23.0202  -15.3144 C   0  0  0  0  0  0  0  0  0  0  0  0
   21.5270  -23.5924  -16.4350 S   0  0  0  0  0  0  0  0  0  0  0  0
   19.8757  -21.5933  -13.3898 C   0  0  0  0  0  0  0  0  0  0  0  0
   18.7821  -20.7216  -13.5349 O   0  0  0  0  0  0  0  0  0  0  0  0
   20.0373  -22.1201  -12.2765 O   0  0  0  0  0  0  0  0  0  0  0  0
  2  1  1  1
  2  6  1  0
  2  3  1  0
  3  4  1  0
  4  5  2  0
  6  7  2  0
  8  4  1  0
  9 10  1  0
  9  6  1  0
 10 18  1  0
 11 12  1  0
 10 11  1  1
 12 17  2  0
 13 14  2  0
 13 12  1  0
 14 15  1  0
 15 16  2  0
 17 16  1  0
 18 19  2  0
 20 21  1  0
 20 18  1  0
 21 24  1  0
 21 22  1  1
 23 22  1  0
 24 26  2  0
 24 25  1  0
M  END
$$$$
