DFC.pdb
     RDKit          3D

 26 26  0  0  1  0  0  0  0  0999 V2000
   24.1445  -12.2388  -18.6049 N   0  0  0  0  0  0  0  0  0  0  0  0
   23.2100  -11.1965  -19.0817 C   0  0  1  0  0  0  0  0  0  0  0  0
   21.9102  -11.9096  -19.3813 C   0  0  0  0  0  0  0  0  0  0  0  0
   21.9530  -12.7172  -20.6014 C   0  0  0  0  0  0  0  0  0  0  0  0
   22.4130  -12.2042  -21.6440 O   0  0  0  0  0  0  0  0  0  0  0  0
   22.9866  -10.3300  -17.8909 C   0  0  0  0  0  0  0  0  0  0  0  0
   22.6245  -10.9117  -16.8295 O   0  0  0  0  0  0  0  0  0  0  0  0
   21.5068  -14.0198  -20.6557 O   0  0  0  0  0  0  0  0  0  0  0  0
   23.1508   -8.9292  -17.8742 N   0  0  0  0  0  0  0  0  0  0  0  0
   22.9667   -8.0941  -16.6806 C   0  0  1  0  0  0  0  0  0  0  0  0
   24.2494   -7.5533  -16.2005 C   0  0  0  0  0  0  0  0  0  0  0  0
   25.3274   -8.4971  -15.8822 C   0  0  0  0  0  0  0  0  0  0  0  0
   25.2708   -9.3270  -14.7632 C   0  0  0  0  0  0  0  0  0  0  0  0
   26.2416  -10.2339  -14.4831 C   0  0  0  0  0  0  0  0  0  0  0  0
   27.3422  -10.3588  -15.3273 C   0  0  0  0  0  0  0  0  0  0  0  0
   27.4089   -9.5428  -16.4377 C   0  0  0  0  0  0  0  0  0  0  0  0
   26.4238   -8.6454  -16.6923 C   0  0  0  0  0  0  0  0  0  0  0  0
   21.8613   -7.1615  -16.8748 C   0  0  0  0  0  0  0  0  0  0  0  0
   21.9565   -6.3664  -17.8824 O   0  0  0  0  0  0  0  0  0  0  0  0
   20.6905   -7.0065  -16.1185 N   0  0  0  0  0  0  0  0  0  0  0  0
   19.6628   -6.0235  -16.4613 C   0  0  1  0  0  0  0  0  0  0  0  0
   18.2800   -6.6410  -16.3594 C   0  0  0  0  0  0  0  0  0  0  0  0
   17.0730   -5.3033  -16.5733 S   0  0  0  0  0  0  0  0  0  0  0  0
   19.7271   -4.8787  -15.5475 C   0  0  0  0  0  0  0  0  0  0  0  0
   19.8018   -3.5567  -16.0203 O   0  0  0  0  0  0  0  0  0  0  0  0
   19.7177   -5.0410  -14.3160 O   0  0  0  0  0  0  0  0  0  0  0  0
  2  1  1  1
  2  6  1  0
  2  3  1  0
  3  4  1  0
  4  5  2  0
  6  7  2  0
  8  4  1  0
  9 10  1  0
  9  6  1  0
 10 18  1  0
 11 12  1  0
 10 11  1  6
 12 17  2  0
 13 14  2  0
 13 12  1  0
 14 15  1  0
 15 16  2  0
 17 16  1  0
 18 19  2  0
 20 21  1  0
 20 18  1  0
 21 24  1  0
 21 22  1  1
 23 22  1  0
 24 26  2  0
 24 25  1  0
M  END
$$$$
