DFC.pdb
     RDKit          3D

 26 26  0  0  1  0  0  0  0  0999 V2000
   18.7468   -3.3091  -16.3762 N   0  0  0  0  0  0  0  0  0  0  0  0
   18.3600   -4.6959  -16.0385 C   0  0  1  0  0  0  0  0  0  0  0  0
   17.2171   -5.0458  -16.9656 C   0  0  0  0  0  0  0  0  0  0  0  0
   15.9200   -4.5404  -16.5129 C   0  0  0  0  0  0  0  0  0  0  0  0
   15.8644   -3.3976  -16.0102 O   0  0  0  0  0  0  0  0  0  0  0  0
   19.5369   -5.5149  -16.4421 C   0  0  0  0  0  0  0  0  0  0  0  0
   20.3213   -4.9980  -17.2868 O   0  0  0  0  0  0  0  0  0  0  0  0
   14.7541   -5.2680  -16.6132 O   0  0  0  0  0  0  0  0  0  0  0  0
   19.8248   -6.8051  -15.9501 N   0  0  0  0  0  0  0  0  0  0  0  0
   20.9674   -7.6161  -16.3889 C   0  0  1  0  0  0  0  0  0  0  0  0
   22.0460   -7.6112  -15.3865 C   0  0  0  0  0  0  0  0  0  0  0  0
   22.7945   -6.3665  -15.1754 C   0  0  0  0  0  0  0  0  0  0  0  0
   22.4016   -5.4251  -14.2249 C   0  0  0  0  0  0  0  0  0  0  0  0
   23.1106   -4.2910  -13.9912 C   0  0  0  0  0  0  0  0  0  0  0  0
   24.2740   -4.0362  -14.7129 C   0  0  0  0  0  0  0  0  0  0  0  0
   24.6726   -4.9607  -15.6561 C   0  0  0  0  0  0  0  0  0  0  0  0
   23.9440   -6.0853  -15.8682 C   0  0  0  0  0  0  0  0  0  0  0  0
   20.5132   -8.9059  -16.8982 C   0  0  0  0  0  0  0  0  0  0  0  0
   19.7906   -9.6115  -16.1003 O   0  0  0  0  0  0  0  0  0  0  0  0
   20.7454   -9.4954  -18.1493 N   0  0  0  0  0  0  0  0  0  0  0  0
   20.1763  -10.7908  -18.5210 C   0  0  1  0  0  0  0  0  0  0  0  0
   19.4875  -10.7025  -19.8706 C   0  0  0  0  0  0  0  0  0  0  0  0
   18.9367  -12.3752  -20.3074 S   0  0  0  0  0  0  0  0  0  0  0  0
   21.2310  -11.8058  -18.6051 C   0  0  0  0  0  0  0  0  0  0  0  0
   21.0384  -13.1152  -18.1305 O   0  0  0  0  0  0  0  0  0  0  0  0
   22.3379  -11.5397  -19.1023 O   0  0  0  0  0  0  0  0  0  0  0  0
  2  1  1  6
  2  6  1  0
  2  3  1  0
  3  4  1  0
  4  5  2  0
  6  7  2  0
  8  4  1  0
  9 10  1  0
  9  6  1  0
 10 18  1  0
 11 12  1  0
 10 11  1  1
 12 17  2  0
 13 14  2  0
 13 12  1  0
 14 15  1  0
 15 16  2  0
 17 16  1  0
 18 19  2  0
 20 21  1  0
 20 18  1  0
 21 24  1  0
 21 22  1  6
 23 22  1  0
 24 26  2  0
 24 25  1  0
M  END
$$$$
