DFC.pdb
     RDKit          3D

 26 26  0  0  1  0  0  0  0  0999 V2000
   26.3353  -21.9565  -13.4712 N   0  0  0  0  0  0  0  0  0  0  0  0
   26.5143  -20.6432  -12.8155 C   0  0  1  0  0  0  0  0  0  0  0  0
   25.2722  -19.8437  -13.1406 C   0  0  0  0  0  0  0  0  0  0  0  0
   25.2111  -19.3968  -14.5332 C   0  0  0  0  0  0  0  0  0  0  0  0
   25.8379  -18.3662  -14.8599 O   0  0  0  0  0  0  0  0  0  0  0  0
   26.4851  -20.9522  -11.3586 C   0  0  0  0  0  0  0  0  0  0  0  0
   25.8006  -21.9545  -11.0079 O   0  0  0  0  0  0  0  0  0  0  0  0
   24.4913  -20.0593  -15.5036 O   0  0  0  0  0  0  0  0  0  0  0  0
   27.1599  -20.2111  -10.3662 N   0  0  0  0  0  0  0  0  0  0  0  0
   27.0861  -20.5035   -8.9293 C   0  0  1  0  0  0  0  0  0  0  0  0
   28.1590  -19.8212   -8.1865 C   0  0  0  0  0  0  0  0  0  0  0  0
   28.1666  -19.9246   -6.7225 C   0  0  0  0  0  0  0  0  0  0  0  0
   27.6382  -18.9204   -5.9122 C   0  0  0  0  0  0  0  0  0  0  0  0
   27.6010  -19.0250   -4.5590 C   0  0  0  0  0  0  0  0  0  0  0  0
   28.1017  -20.1647   -3.9348 C   0  0  0  0  0  0  0  0  0  0  0  0
   28.6270  -21.1650   -4.7265 C   0  0  0  0  0  0  0  0  0  0  0  0
   28.6510  -21.0329   -6.0765 C   0  0  0  0  0  0  0  0  0  0  0  0
   25.7173  -20.3524   -8.4465 C   0  0  0  0  0  0  0  0  0  0  0  0
   25.2154  -19.1693   -8.5167 O   0  0  0  0  0  0  0  0  0  0  0  0
   24.8534  -21.3215   -7.9163 N   0  0  0  0  0  0  0  0  0  0  0  0
   23.5502  -20.9794   -7.3466 C   0  0  1  0  0  0  0  0  0  0  0  0
   22.4302  -21.5307   -8.2099 C   0  0  0  0  0  0  0  0  0  0  0  0
   22.4696  -20.6325   -9.7859 S   0  0  0  0  0  0  0  0  0  0  0  0
   23.4180  -21.5447   -6.0003 C   0  0  0  0  0  0  0  0  0  0  0  0
   24.4381  -22.3173   -5.4177 O   0  0  0  0  0  0  0  0  0  0  0  0
   22.3921  -21.3579   -5.3251 O   0  0  0  0  0  0  0  0  0  0  0  0
  2  1  1  6
  2  6  1  0
  2  3  1  0
  3  4  1  0
  4  5  2  0
  6  7  2  0
  8  4  1  0
  9 10  1  0
  9  6  1  0
 10 18  1  0
 11 12  1  0
 10 11  1  1
 12 17  2  0
 13 14  2  0
 13 12  1  0
 14 15  1  0
 15 16  2  0
 17 16  1  0
 18 19  2  0
 20 21  1  0
 20 18  1  0
 21 24  1  0
 21 22  1  6
 23 22  1  0
 24 26  2  0
 24 25  1  0
M  END
$$$$
