LDQ.pdb
     RDKit          3D

 26 25  0  0  1  0  0  0  0  0999 V2000
    7.0921  -12.3857   18.6784 C   0  0  0  0  0  0  0  0  0  0  0  0
    8.2190  -13.2852   19.0960 C   0  0  1  0  0  0  0  0  0  0  0  0
    9.4000  -12.4257   19.4795 C   0  0  0  0  0  0  0  0  0  0  0  0
    7.8816  -14.1725   20.2584 C   0  0  0  0  0  0  0  0  0  0  0  0
    9.0952  -14.9592   20.6863 C   0  0  2  0  0  0  0  0  0  0  0  0
    9.6131  -15.6345   19.5195 N   0  0  0  0  0  0  0  0  0  0  0  0
    8.7146  -15.8640   21.7724 C   0  0  0  0  0  0  0  0  0  0  0  0
    8.1463  -15.4009   22.7919 O   0  0  0  0  0  0  0  0  0  0  0  0
    8.9789  -17.2492   21.6878 N   0  0  0  0  0  0  0  0  0  0  0  0
    8.6111  -18.0690   22.8189 C   0  0  1  0  0  0  0  0  0  0  0  0
    8.6588  -19.5205   22.4007 C   0  0  0  0  0  0  0  0  0  0  0  0
    8.3278  -20.4503   23.5003 C   0  0  0  0  0  0  0  0  0  0  0  0
    9.1621  -20.6858   24.3840 O   0  0  0  0  0  0  0  0  0  0  0  0
    9.6753  -17.8875   23.8716 C   0  0  0  0  0  0  0  0  0  0  0  0
   10.9019  -17.9532   23.6174 O   0  0  0  0  0  0  0  0  0  0  0  0
    7.0916  -21.0750   23.5720 O   0  0  0  0  0  0  0  0  0  0  0  0
   10.1577  -13.9161   29.9284 N   0  0  0  0  0  0  0  0  0  0  0  0
   10.0554  -14.0314   28.5254 C   0  0  0  0  0  0  0  0  0  0  0  0
    9.5207  -13.1238   27.8645 O   0  0  0  0  0  0  0  0  0  0  0  0
   10.5815  -15.2284   27.8497 C   0  0  0  0  0  0  0  0  0  0  0  0
    9.6543  -15.8870   26.8867 C   0  0  0  0  0  0  0  0  0  0  0  0
   10.2775  -17.0216   26.1688 C   0  0  2  0  0  0  0  0  0  0  0  0
    9.3269  -17.6287   25.2224 N   0  0  0  0  0  0  0  0  0  0  0  0
   10.7635  -18.0431   27.1192 C   0  0  0  0  0  0  0  0  0  0  0  0
   10.1689  -19.3168   27.2161 O   0  0  0  0  0  0  0  0  0  0  0  0
   11.7226  -17.8376   27.8843 O   0  0  0  0  0  0  0  0  0  0  0  0
  2  1  1  1
  3  2  1  0
  4  2  1  0
  5  4  1  0
  5  6  1  6
  7  8  2  0
  7  5  1  0
  9  7  1  0
 10  9  1  0
 10 11  1  6
 12 16  1  0
 12 11  1  0
 13 12  2  0
 14 10  1  0
 14 15  2  0
 18 17  1  0
 19 18  2  0
 20 18  1  0
 21 20  1  0
 22 23  1  0
 22 21  1  1
 23 14  1  0
 24 22  1  0
 25 24  1  0
 26 24  2  0
M  END
$$$$
