LDQ.pdb
     RDKit          3D

 26 25  0  0  1  0  0  0  0  0999 V2000
    6.6678  -11.8076   26.8848 C   0  0  0  0  0  0  0  0  0  0  0  0
    6.2755  -12.8920   25.9238 C   0  0  1  0  0  0  0  0  0  0  0  0
    5.9971  -12.2622   24.5798 C   0  0  0  0  0  0  0  0  0  0  0  0
    7.3282  -13.9464   25.7438 C   0  0  0  0  0  0  0  0  0  0  0  0
    6.8185  -15.0480   24.8486 C   0  0  2  0  0  0  0  0  0  0  0  0
    5.7875  -15.7568   25.5701 N   0  0  0  0  0  0  0  0  0  0  0  0
    7.9453  -15.8919   24.4471 C   0  0  0  0  0  0  0  0  0  0  0  0
    8.2349  -16.9033   25.1327 O   0  0  0  0  0  0  0  0  0  0  0  0
    8.7099  -15.5824   23.3001 N   0  0  0  0  0  0  0  0  0  0  0  0
    9.7410  -16.5173   22.9133 C   0  0  1  0  0  0  0  0  0  0  0  0
   10.3179  -16.0802   21.5866 C   0  0  0  0  0  0  0  0  0  0  0  0
   11.1786  -17.1070   20.9638 C   0  0  0  0  0  0  0  0  0  0  0  0
   12.1059  -17.6121   21.6099 O   0  0  0  0  0  0  0  0  0  0  0  0
   10.8529  -16.4056   23.9257 C   0  0  0  0  0  0  0  0  0  0  0  0
   11.5085  -15.3509   24.1026 O   0  0  0  0  0  0  0  0  0  0  0  0
   10.9741  -17.5273   19.6580 O   0  0  0  0  0  0  0  0  0  0  0  0
   10.9055  -14.1111   28.9524 N   0  0  0  0  0  0  0  0  0  0  0  0
   11.1975  -15.4637   29.2305 C   0  0  0  0  0  0  0  0  0  0  0  0
   10.8519  -15.9640   30.3153 O   0  0  0  0  0  0  0  0  0  0  0  0
   11.9128  -16.2772   28.2341 C   0  0  0  0  0  0  0  0  0  0  0  0
   11.2269  -16.4418   26.9214 C   0  0  0  0  0  0  0  0  0  0  0  0
   11.9534  -17.3433   25.9991 C   0  0  2  0  0  0  0  0  0  0  0  0
   11.2117  -17.5119   24.7385 N   0  0  0  0  0  0  0  0  0  0  0  0
   12.1872  -18.6607   26.6257 C   0  0  0  0  0  0  0  0  0  0  0  0
   11.4944  -19.8169   26.2154 O   0  0  0  0  0  0  0  0  0  0  0  0
   13.0069  -18.8233   27.5472 O   0  0  0  0  0  0  0  0  0  0  0  0
  2  1  1  1
  3  2  1  0
  4  2  1  0
  5  4  1  0
  5  6  1  1
  7  8  2  0
  7  5  1  0
  9  7  1  0
 10  9  1  0
 10 11  1  6
 12 16  1  0
 12 11  1  0
 13 12  2  0
 14 10  1  0
 14 15  2  0
 18 17  1  0
 19 18  2  0
 20 18  1  0
 21 20  1  0
 22 23  1  0
 22 21  1  1
 23 14  1  0
 24 22  1  0
 25 24  1  0
 26 24  2  0
M  END
$$$$
