LDQ.pdb
     RDKit          3D

 26 25  0  0  1  0  0  0  0  0999 V2000
    7.2774  -11.9100   19.9162 C   0  0  0  0  0  0  0  0  0  0  0  0
    8.0219  -13.1785   19.6158 C   0  0  1  0  0  0  0  0  0  0  0  0
    9.4587  -12.8286   19.3097 C   0  0  0  0  0  0  0  0  0  0  0  0
    8.0053  -14.1676   20.7443 C   0  0  0  0  0  0  0  0  0  0  0  0
    8.7052  -15.4397   20.3361 C   0  0  2  0  0  0  0  0  0  0  0  0
    7.8818  -16.0945   19.3467 N   0  0  0  0  0  0  0  0  0  0  0  0
    8.9506  -16.2499   21.5305 C   0  0  0  0  0  0  0  0  0  0  0  0
    8.0032  -16.8928   22.0463 O   0  0  0  0  0  0  0  0  0  0  0  0
   10.2377  -16.3165   22.1092 N   0  0  0  0  0  0  0  0  0  0  0  0
   10.3806  -17.0696   23.3335 C   0  0  1  0  0  0  0  0  0  0  0  0
   11.7051  -17.7967   23.3028 C   0  0  0  0  0  0  0  0  0  0  0  0
   11.9594  -18.5871   24.5250 C   0  0  0  0  0  0  0  0  0  0  0  0
   11.3222  -19.6279   24.7328 O   0  0  0  0  0  0  0  0  0  0  0  0
   10.4588  -16.0772   24.4662 C   0  0  0  0  0  0  0  0  0  0  0  0
   11.3480  -15.1954   24.5378 O   0  0  0  0  0  0  0  0  0  0  0  0
   12.9054  -18.1910   25.4588 O   0  0  0  0  0  0  0  0  0  0  0  0
    6.5306  -11.5705   25.4498 N   0  0  0  0  0  0  0  0  0  0  0  0
    6.6385  -12.8973   25.9187 C   0  0  0  0  0  0  0  0  0  0  0  0
    5.6686  -13.4406   26.4760 O   0  0  0  0  0  0  0  0  0  0  0  0
    7.9017  -13.6331   25.7472 C   0  0  0  0  0  0  0  0  0  0  0  0
    8.3107  -14.4913   26.8947 C   0  0  0  0  0  0  0  0  0  0  0  0
    9.6004  -15.1819   26.6687 C   0  0  2  0  0  0  0  0  0  0  0  0
    9.5095  -16.0990   25.5205 N   0  0  0  0  0  0  0  0  0  0  0  0
   10.0182  -15.9254   27.8751 C   0  0  0  0  0  0  0  0  0  0  0  0
   10.1644  -17.3267   27.8761 O   0  0  0  0  0  0  0  0  0  0  0  0
   10.2647  -15.3580   28.9544 O   0  0  0  0  0  0  0  0  0  0  0  0
  2  1  1  1
  3  2  1  0
  4  2  1  0
  5  4  1  0
  5  6  1  6
  7  8  2  0
  7  5  1  0
  9  7  1  0
 10  9  1  0
 10 11  1  6
 12 16  1  0
 12 11  1  0
 13 12  2  0
 14 10  1  0
 14 15  2  0
 18 17  1  0
 19 18  2  0
 20 18  1  0
 21 20  1  0
 22 23  1  0
 22 21  1  1
 23 14  1  0
 24 22  1  0
 25 24  1  0
 26 24  2  0
M  END
$$$$
