LDQ.pdb
     RDKit          3D

 26 25  0  0  1  0  0  0  0  0999 V2000
    7.4285  -11.9120   20.3400 C   0  0  0  0  0  0  0  0  0  0  0  0
    7.5437  -13.2781   19.7286 C   0  0  1  0  0  0  0  0  0  0  0  0
    8.1679  -13.1386   18.3606 C   0  0  0  0  0  0  0  0  0  0  0  0
    8.3780  -14.2299   20.5350 C   0  0  0  0  0  0  0  0  0  0  0  0
    8.2834  -15.6226   19.9639 C   0  0  2  0  0  0  0  0  0  0  0  0
    6.8838  -15.9700   19.8864 N   0  0  0  0  0  0  0  0  0  0  0  0
    9.0726  -16.5312   20.7974 C   0  0  0  0  0  0  0  0  0  0  0  0
    8.5068  -17.1782   21.7129 O   0  0  0  0  0  0  0  0  0  0  0  0
   10.4605  -16.6882   20.5851 N   0  0  0  0  0  0  0  0  0  0  0  0
   11.1626  -17.6270   21.4291 C   0  0  1  0  0  0  0  0  0  0  0  0
   12.5298  -17.8813   20.8374 C   0  0  0  0  0  0  0  0  0  0  0  0
   13.2006  -19.0627   21.4182 C   0  0  0  0  0  0  0  0  0  0  0  0
   14.2648  -19.4702   20.9346 O   0  0  0  0  0  0  0  0  0  0  0  0
   11.3861  -16.9558   22.7607 C   0  0  0  0  0  0  0  0  0  0  0  0
   12.2518  -16.0653   22.9368 O   0  0  0  0  0  0  0  0  0  0  0  0
   12.6650  -19.7372   22.5053 O   0  0  0  0  0  0  0  0  0  0  0  0
    7.1413  -15.0782   26.7203 N   0  0  0  0  0  0  0  0  0  0  0  0
    8.0525  -14.2186   26.0702 C   0  0  0  0  0  0  0  0  0  0  0  0
    7.7809  -13.0126   25.9344 O   0  0  0  0  0  0  0  0  0  0  0  0
    9.3220  -14.7546   25.5533 C   0  0  0  0  0  0  0  0  0  0  0  0
    9.5522  -16.2084   25.7859 C   0  0  0  0  0  0  0  0  0  0  0  0
   10.8287  -16.6903   25.2119 C   0  0  2  0  0  0  0  0  0  0  0  0
   10.6100  -17.3101   23.8944 N   0  0  0  0  0  0  0  0  0  0  0  0
   11.4835  -17.6548   26.1196 C   0  0  0  0  0  0  0  0  0  0  0  0
   12.0124  -17.2670   27.3665 O   0  0  0  0  0  0  0  0  0  0  0  0
   11.6034  -18.8600   25.8356 O   0  0  0  0  0  0  0  0  0  0  0  0
  2  1  1  1
  3  2  1  0
  4  2  1  0
  5  4  1  0
  5  6  1  1
  7  8  2  0
  7  5  1  0
  9  7  1  0
 10  9  1  0
 10 11  1  6
 12 16  1  0
 12 11  1  0
 13 12  2  0
 14 10  1  0
 14 15  2  0
 18 17  1  0
 19 18  2  0
 20 18  1  0
 21 20  1  0
 22 23  1  0
 22 21  1  1
 23 14  1  0
 24 22  1  0
 25 24  1  0
 26 24  2  0
M  END
$$$$
