LDQ.pdb
     RDKit          3D

 26 25  0  0  1  0  0  0  0  0999 V2000
    6.7336  -13.2130   19.2495 C   0  0  0  0  0  0  0  0  0  0  0  0
    8.0619  -13.8532   19.5307 C   0  0  1  0  0  0  0  0  0  0  0  0
    9.1452  -12.8253   19.3068 C   0  0  0  0  0  0  0  0  0  0  0  0
    8.1915  -14.3809   20.9297 C   0  0  0  0  0  0  0  0  0  0  0  0
    9.5930  -14.8826   21.1725 C   0  0  2  0  0  0  0  0  0  0  0  0
    9.9759  -15.6814   20.0318 N   0  0  0  0  0  0  0  0  0  0  0  0
    9.6219  -15.6122   22.4413 C   0  0  0  0  0  0  0  0  0  0  0  0
    8.7185  -15.4117   23.2901 O   0  0  0  0  0  0  0  0  0  0  0  0
   10.6524  -16.5370   22.7222 N   0  0  0  0  0  0  0  0  0  0  0  0
   10.5638  -17.2797   23.9579 C   0  0  1  0  0  0  0  0  0  0  0  0
   11.6696  -18.3096   23.9841 C   0  0  0  0  0  0  0  0  0  0  0  0
   11.5310  -19.2789   25.0906 C   0  0  0  0  0  0  0  0  0  0  0  0
   12.3841  -20.1616   25.2506 O   0  0  0  0  0  0  0  0  0  0  0  0
   10.8440  -16.3163   25.0835 C   0  0  0  0  0  0  0  0  0  0  0  0
   11.9305  -15.6998   25.1967 O   0  0  0  0  0  0  0  0  0  0  0  0
   10.4579  -19.2269   25.9678 O   0  0  0  0  0  0  0  0  0  0  0  0
    6.8814  -12.3661   27.4911 N   0  0  0  0  0  0  0  0  0  0  0  0
    7.6109  -12.4582   26.2863 C   0  0  0  0  0  0  0  0  0  0  0  0
    7.3266  -11.7168   25.3292 O   0  0  0  0  0  0  0  0  0  0  0  0
    8.7059  -13.4345   26.1672 C   0  0  0  0  0  0  0  0  0  0  0  0
    9.0240  -14.2029   27.4037 C   0  0  0  0  0  0  0  0  0  0  0  0
   10.1366  -15.1615   27.2179 C   0  0  2  0  0  0  0  0  0  0  0  0
    9.8697  -16.0604   26.0828 N   0  0  0  0  0  0  0  0  0  0  0  0
   10.3602  -15.9531   28.4453 C   0  0  0  0  0  0  0  0  0  0  0  0
   10.1579  -17.3469   28.4827 O   0  0  0  0  0  0  0  0  0  0  0  0
   10.7395  -15.4356   29.5110 O   0  0  0  0  0  0  0  0  0  0  0  0
  2  1  1  1
  3  2  1  0
  4  2  1  0
  5  4  1  0
  5  6  1  6
  7  8  2  0
  7  5  1  0
  9  7  1  0
 10  9  1  0
 10 11  1  6
 12 16  1  0
 12 11  1  0
 13 12  2  0
 14 10  1  0
 14 15  2  0
 18 17  1  0
 19 18  2  0
 20 18  1  0
 21 20  1  0
 22 23  1  0
 22 21  1  1
 23 14  1  0
 24 22  1  0
 25 24  1  0
 26 24  2  0
M  END
$$$$
