LDQ.pdb
     RDKit          3D

 26 25  0  0  1  0  0  0  0  0999 V2000
    7.1134  -12.3522   27.7459 C   0  0  0  0  0  0  0  0  0  0  0  0
    6.6889  -12.9670   26.4438 C   0  0  1  0  0  0  0  0  0  0  0  0
    6.7911  -11.9170   25.3634 C   0  0  0  0  0  0  0  0  0  0  0  0
    7.5205  -14.1481   26.0367 C   0  0  0  0  0  0  0  0  0  0  0  0
    6.9038  -14.8369   24.8450 C   0  0  2  0  0  0  0  0  0  0  0  0
    5.6274  -15.3703   25.2596 N   0  0  0  0  0  0  0  0  0  0  0  0
    7.8355  -15.8517   24.3496 C   0  0  0  0  0  0  0  0  0  0  0  0
    7.8219  -17.0016   24.8538 O   0  0  0  0  0  0  0  0  0  0  0  0
    8.7485  -15.5532   23.3136 N   0  0  0  0  0  0  0  0  0  0  0  0
    9.6404  -16.6061   22.8864 C   0  0  1  0  0  0  0  0  0  0  0  0
   10.3224  -16.1741   21.6088 C   0  0  0  0  0  0  0  0  0  0  0  0
    9.4787  -16.3626   20.4106 C   0  0  0  0  0  0  0  0  0  0  0  0
    8.8440  -17.4146   20.2598 O   0  0  0  0  0  0  0  0  0  0  0  0
   10.7204  -16.7329   23.9310 C   0  0  0  0  0  0  0  0  0  0  0  0
   11.4229  -15.7632   24.3045 O   0  0  0  0  0  0  0  0  0  0  0  0
    9.3756  -15.3804   19.4367 O   0  0  0  0  0  0  0  0  0  0  0  0
   10.0286  -19.9540   29.1331 N   0  0  0  0  0  0  0  0  0  0  0  0
   11.3583  -19.4920   29.2354 C   0  0  0  0  0  0  0  0  0  0  0  0
   11.9638  -19.5752   30.3184 O   0  0  0  0  0  0  0  0  0  0  0  0
   12.0232  -18.9111   28.0578 C   0  0  0  0  0  0  0  0  0  0  0  0
   11.1793  -18.7839   26.8362 C   0  0  0  0  0  0  0  0  0  0  0  0
   11.8709  -18.0910   25.7259 C   0  0  2  0  0  0  0  0  0  0  0  0
   10.9929  -17.9806   24.5492 N   0  0  0  0  0  0  0  0  0  0  0  0
   13.1169  -18.7956   25.3602 C   0  0  0  0  0  0  0  0  0  0  0  0
   13.1298  -19.8612   24.4384 O   0  0  0  0  0  0  0  0  0  0  0  0
   14.2214  -18.4883   25.8428 O   0  0  0  0  0  0  0  0  0  0  0  0
  2  1  1  1
  3  2  1  0
  4  2  1  0
  5  4  1  0
  5  6  1  1
  7  8  2  0
  7  5  1  0
  9  7  1  0
 10  9  1  0
 10 11  1  6
 12 16  1  0
 12 11  1  0
 13 12  2  0
 14 10  1  0
 14 15  2  0
 18 17  1  0
 19 18  2  0
 20 18  1  0
 21 20  1  0
 22 23  1  0
 22 21  1  1
 23 14  1  0
 24 22  1  0
 25 24  1  0
 26 24  2  0
M  END
$$$$
