LDQ.pdb
     RDKit          3D

 26 25  0  0  1  0  0  0  0  0999 V2000
    6.8336  -11.9151   26.8099 C   0  0  0  0  0  0  0  0  0  0  0  0
    6.4439  -12.9619   25.8071 C   0  0  1  0  0  0  0  0  0  0  0  0
    6.6913  -12.4130   24.4222 C   0  0  0  0  0  0  0  0  0  0  0  0
    7.2067  -14.2463   25.9507 C   0  0  0  0  0  0  0  0  0  0  0  0
    6.7739  -15.2333   24.8955 C   0  0  2  0  0  0  0  0  0  0  0  0
    5.6500  -15.9722   25.4216 N   0  0  0  0  0  0  0  0  0  0  0  0
    7.9171  -16.0738   24.5353 C   0  0  0  0  0  0  0  0  0  0  0  0
    8.2030  -17.0668   25.2488 O   0  0  0  0  0  0  0  0  0  0  0  0
    8.7015  -15.7814   23.3973 N   0  0  0  0  0  0  0  0  0  0  0  0
    9.8098  -16.6612   23.1068 C   0  0  1  0  0  0  0  0  0  0  0  0
   10.3084  -16.3671   21.7108 C   0  0  0  0  0  0  0  0  0  0  0  0
   11.3613  -17.3023   21.2638 C   0  0  0  0  0  0  0  0  0  0  0  0
   12.4296  -16.8641   20.8175 O   0  0  0  0  0  0  0  0  0  0  0  0
   10.9297  -16.3015   24.0503 C   0  0  0  0  0  0  0  0  0  0  0  0
   11.6462  -15.2831   23.8986 O   0  0  0  0  0  0  0  0  0  0  0  0
   11.1848  -18.6764   21.3314 O   0  0  0  0  0  0  0  0  0  0  0  0
   10.7873  -16.7306   30.1187 N   0  0  0  0  0  0  0  0  0  0  0  0
   10.6795  -15.5701   29.3228 C   0  0  0  0  0  0  0  0  0  0  0  0
   10.1664  -14.5393   29.7928 O   0  0  0  0  0  0  0  0  0  0  0  0
   11.1743  -15.5853   27.9368 C   0  0  0  0  0  0  0  0  0  0  0  0
   11.8521  -16.8407   27.5063 C   0  0  0  0  0  0  0  0  0  0  0  0
   12.3208  -16.7922   26.1029 C   0  0  2  0  0  0  0  0  0  0  0  0
   11.2260  -17.1163   25.1733 N   0  0  0  0  0  0  0  0  0  0  0  0
   13.4511  -17.7201   25.8928 C   0  0  0  0  0  0  0  0  0  0  0  0
   13.3631  -18.8184   25.0146 O   0  0  0  0  0  0  0  0  0  0  0  0
   14.5411  -17.5841   26.4766 O   0  0  0  0  0  0  0  0  0  0  0  0
  2  1  1  1
  3  2  1  0
  4  2  1  0
  5  4  1  0
  5  6  1  1
  7  8  2  0
  7  5  1  0
  9  7  1  0
 10  9  1  0
 10 11  1  6
 12 16  1  0
 12 11  1  0
 13 12  2  0
 14 10  1  0
 14 15  2  0
 18 17  1  0
 19 18  2  0
 20 18  1  0
 21 20  1  0
 22 23  1  0
 22 21  1  1
 23 14  1  0
 24 22  1  0
 25 24  1  0
 26 24  2  0
M  END
$$$$
