LDQ.pdb
     RDKit          3D

 26 25  0  0  1  0  0  0  0  0999 V2000
    7.1144  -12.1827   19.5853 C   0  0  0  0  0  0  0  0  0  0  0  0
    7.7334  -13.4988   19.2135 C   0  0  1  0  0  0  0  0  0  0  0  0
    8.9846  -13.2293   18.4121 C   0  0  0  0  0  0  0  0  0  0  0  0
    8.1017  -14.3460   20.3962 C   0  0  0  0  0  0  0  0  0  0  0  0
    8.6873  -15.6583   19.9383 C   0  0  2  0  0  0  0  0  0  0  0  0
    7.6741  -16.3469   19.1735 N   0  0  0  0  0  0  0  0  0  0  0  0
    9.1525  -16.4039   21.1092 C   0  0  0  0  0  0  0  0  0  0  0  0
    8.3321  -17.0815   21.7761 O   0  0  0  0  0  0  0  0  0  0  0  0
   10.5104  -16.3699   21.4975 N   0  0  0  0  0  0  0  0  0  0  0  0
   10.8892  -17.1289   22.6667 C   0  0  1  0  0  0  0  0  0  0  0  0
   12.3968  -17.2224   22.7156 C   0  0  0  0  0  0  0  0  0  0  0  0
   12.9500  -18.1695   21.7256 C   0  0  0  0  0  0  0  0  0  0  0  0
   13.6591  -17.7535   20.8001 O   0  0  0  0  0  0  0  0  0  0  0  0
   10.4662  -16.3340   23.8762 C   0  0  0  0  0  0  0  0  0  0  0  0
   10.8628  -15.1640   24.0940 O   0  0  0  0  0  0  0  0  0  0  0  0
   12.6944  -19.5304   21.8050 O   0  0  0  0  0  0  0  0  0  0  0  0
    7.5334  -12.9038   25.5083 N   0  0  0  0  0  0  0  0  0  0  0  0
    7.1705  -13.4321   26.7658 C   0  0  0  0  0  0  0  0  0  0  0  0
    6.8177  -12.6691   27.6823 O   0  0  0  0  0  0  0  0  0  0  0  0
    7.2130  -14.8864   26.9879 C   0  0  0  0  0  0  0  0  0  0  0  0
    7.7144  -15.7004   25.8448 C   0  0  0  0  0  0  0  0  0  0  0  0
    9.1252  -16.1180   26.0079 C   0  0  2  0  0  0  0  0  0  0  0  0
    9.5827  -16.8871   24.8387 N   0  0  0  0  0  0  0  0  0  0  0  0
    9.2984  -16.9196   27.2370 C   0  0  0  0  0  0  0  0  0  0  0  0
    9.5359  -16.3229   28.4910 O   0  0  0  0  0  0  0  0  0  0  0  0
    9.2433  -18.1623   27.2342 O   0  0  0  0  0  0  0  0  0  0  0  0
  2  1  1  1
  3  2  1  0
  4  2  1  0
  5  4  1  0
  5  6  1  1
  7  8  2  0
  7  5  1  0
  9  7  1  0
 10  9  1  0
 10 11  1  1
 12 16  1  0
 12 11  1  0
 13 12  2  0
 14 10  1  0
 14 15  2  0
 18 17  1  0
 19 18  2  0
 20 18  1  0
 21 20  1  0
 22 23  1  0
 22 21  1  6
 23 14  1  0
 24 22  1  0
 25 24  1  0
 26 24  2  0
M  END
$$$$
