LDQ.pdb
     RDKit          3D

 26 25  0  0  1  0  0  0  0  0999 V2000
    7.3184  -12.0241   19.7502 C   0  0  0  0  0  0  0  0  0  0  0  0
    7.6751  -13.4369   19.3892 C   0  0  1  0  0  0  0  0  0  0  0  0
    8.7331  -13.4027   18.3123 C   0  0  0  0  0  0  0  0  0  0  0  0
    8.2003  -14.2387   20.5440 C   0  0  0  0  0  0  0  0  0  0  0  0
    8.3993  -15.6769   20.1355 C   0  0  2  0  0  0  0  0  0  0  0  0
    7.1367  -16.1690   19.6361 N   0  0  0  0  0  0  0  0  0  0  0  0
    8.9146  -16.4281   21.2815 C   0  0  0  0  0  0  0  0  0  0  0  0
    8.1105  -17.0064   22.0533 O   0  0  0  0  0  0  0  0  0  0  0  0
   10.3031  -16.5095   21.5295 N   0  0  0  0  0  0  0  0  0  0  0  0
   10.7281  -17.2022   22.7237 C   0  0  1  0  0  0  0  0  0  0  0  0
   12.1842  -17.5778   22.5732 C   0  0  0  0  0  0  0  0  0  0  0  0
   12.7471  -18.2081   23.7853 C   0  0  0  0  0  0  0  0  0  0  0  0
   12.1462  -19.1413   24.3336 O   0  0  0  0  0  0  0  0  0  0  0  0
   10.6511  -16.2202   23.8655 C   0  0  0  0  0  0  0  0  0  0  0  0
   11.1064  -15.0537   23.7914 O   0  0  0  0  0  0  0  0  0  0  0  0
   13.9465  -17.7785   24.3335 O   0  0  0  0  0  0  0  0  0  0  0  0
    6.2462  -13.2233   25.4303 N   0  0  0  0  0  0  0  0  0  0  0  0
    7.0714  -12.9137   26.5327 C   0  0  0  0  0  0  0  0  0  0  0  0
    6.7976  -11.9438   27.2612 O   0  0  0  0  0  0  0  0  0  0  0  0
    8.2556  -13.7409   26.8147 C   0  0  0  0  0  0  0  0  0  0  0  0
    8.5301  -14.8314   25.8368 C   0  0  0  0  0  0  0  0  0  0  0  0
    9.7642  -15.5879   26.1465 C   0  0  2  0  0  0  0  0  0  0  0  0
   10.0470  -16.5815   25.0974 N   0  0  0  0  0  0  0  0  0  0  0  0
    9.6557  -16.2582   27.4587 C   0  0  0  0  0  0  0  0  0  0  0  0
    9.9919  -15.6056   28.6613 O   0  0  0  0  0  0  0  0  0  0  0  0
    9.2616  -17.4323   27.5756 O   0  0  0  0  0  0  0  0  0  0  0  0
  2  1  1  1
  3  2  1  0
  4  2  1  0
  5  4  1  0
  5  6  1  1
  7  8  2  0
  7  5  1  0
  9  7  1  0
 10  9  1  0
 10 11  1  6
 12 16  1  0
 12 11  1  0
 13 12  2  0
 14 10  1  0
 14 15  2  0
 18 17  1  0
 19 18  2  0
 20 18  1  0
 21 20  1  0
 22 23  1  0
 22 21  1  6
 23 14  1  0
 24 22  1  0
 25 24  1  0
 26 24  2  0
M  END
$$$$
