LDQ.pdb
     RDKit          3D

 26 25  0  0  1  0  0  0  0  0999 V2000
    6.6934  -12.2467   27.3420 C   0  0  0  0  0  0  0  0  0  0  0  0
    6.3579  -13.1482   26.1896 C   0  0  1  0  0  0  0  0  0  0  0  0
    6.1248  -12.2941   24.9663 C   0  0  0  0  0  0  0  0  0  0  0  0
    7.4336  -14.1456   25.8729 C   0  0  0  0  0  0  0  0  0  0  0  0
    6.9599  -15.1078   24.8124 C   0  0  2  0  0  0  0  0  0  0  0  0
    5.8102  -15.8067   25.3372 N   0  0  0  0  0  0  0  0  0  0  0  0
    8.0689  -15.9889   24.4425 C   0  0  0  0  0  0  0  0  0  0  0  0
    8.2605  -17.0467   25.0914 O   0  0  0  0  0  0  0  0  0  0  0  0
    8.9250  -15.6638   23.3667 N   0  0  0  0  0  0  0  0  0  0  0  0
    9.9476  -16.6215   23.0147 C   0  0  1  0  0  0  0  0  0  0  0  0
   10.5189  -16.2463   21.6669 C   0  0  0  0  0  0  0  0  0  0  0  0
   11.5178  -17.2161   21.1719 C   0  0  0  0  0  0  0  0  0  0  0  0
   12.1166  -17.0004   20.1102 O   0  0  0  0  0  0  0  0  0  0  0  0
   11.0665  -16.4735   24.0147 C   0  0  0  0  0  0  0  0  0  0  0  0
   11.7259  -15.4145   24.1458 O   0  0  0  0  0  0  0  0  0  0  0  0
   11.8081  -18.3771   21.8730 O   0  0  0  0  0  0  0  0  0  0  0  0
   11.5908  -14.2384   28.6772 N   0  0  0  0  0  0  0  0  0  0  0  0
   11.2352  -15.5647   29.0032 C   0  0  0  0  0  0  0  0  0  0  0  0
   10.7553  -15.8228   30.1211 O   0  0  0  0  0  0  0  0  0  0  0  0
   11.4359  -16.6390   28.0174 C   0  0  0  0  0  0  0  0  0  0  0  0
   12.1786  -16.2541   26.7842 C   0  0  0  0  0  0  0  0  0  0  0  0
   12.4675  -17.4061   25.9006 C   0  0  2  0  0  0  0  0  0  0  0  0
   11.4279  -17.5480   24.8677 N   0  0  0  0  0  0  0  0  0  0  0  0
   12.5747  -18.6554   26.6821 C   0  0  0  0  0  0  0  0  0  0  0  0
   13.6749  -18.9196   27.5216 O   0  0  0  0  0  0  0  0  0  0  0  0
   11.7020  -19.5410   26.6441 O   0  0  0  0  0  0  0  0  0  0  0  0
  2  1  1  1
  3  2  1  0
  4  2  1  0
  5  4  1  0
  5  6  1  1
  7  8  2  0
  7  5  1  0
  9  7  1  0
 10  9  1  0
 10 11  1  6
 12 16  1  0
 12 11  1  0
 13 12  2  0
 14 10  1  0
 14 15  2  0
 18 17  1  0
 19 18  2  0
 20 18  1  0
 21 20  1  0
 22 23  1  0
 22 21  1  1
 23 14  1  0
 24 22  1  0
 25 24  1  0
 26 24  2  0
M  END
$$$$
