LHV.pdb
     RDKit          3D

 26 26  0  0  1  0  0  0  0  0999 V2000
   29.0865  -20.3767   -6.1627 C   0  0  0  0  0  0  0  0  0  0  0  0
   27.6654  -20.3382   -6.5647 C   0  0  1  0  0  0  0  0  0  0  0  0
   26.9285  -19.3966   -5.6149 C   0  0  0  0  0  0  0  0  0  0  0  0
   27.4036  -19.8520   -7.9565 C   0  0  0  0  0  0  0  0  0  0  0  0
   25.9581  -19.8693   -8.3477 C   0  0  2  0  0  0  0  0  0  0  0  0
   25.3625  -21.0720   -7.8272 N   0  0  0  0  0  0  0  0  0  0  0  0
   25.8842  -19.9371   -9.8306 C   0  0  0  0  0  0  0  0  0  0  0  0
   26.4929  -19.1152  -10.5750 O   0  0  0  0  0  0  0  0  0  0  0  0
   25.1136  -20.9457  -10.4449 N   0  0  0  0  0  0  0  0  0  0  0  0
   25.0153  -21.0983  -11.8835 C   0  0  1  0  0  0  0  0  0  0  0  0
   25.4266  -22.5027  -12.2803 C   0  0  0  0  0  0  0  0  0  0  0  0
   25.4528  -22.6739  -13.7467 C   0  0  0  0  0  0  0  0  0  0  0  0
   26.4685  -22.1283  -14.5245 C   0  0  0  0  0  0  0  0  0  0  0  0
   26.2456  -22.4350  -15.8137 N   0  0  0  0  0  0  0  0  0  0  0  0
   25.1180  -23.1527  -15.8249 C   0  0  0  0  0  0  0  0  0  0  0  0
   24.6351  -23.3010  -14.5876 N   0  0  0  0  0  0  0  0  0  0  0  0
   23.6168  -20.8295  -12.2784 C   0  0  0  0  0  0  0  0  0  0  0  0
   22.6894  -21.0947  -11.5069 O   0  0  0  0  0  0  0  0  0  0  0  0
   22.5923  -17.5563  -14.2671 C   0  0  0  0  0  0  0  0  0  0  0  0
   21.9985  -18.7676  -14.9028 C   0  0  1  0  0  0  0  0  0  0  0  0
   22.6465  -19.0184  -16.2237 C   0  0  0  0  0  0  0  0  0  0  0  0
   21.9947  -19.9777  -14.0031 C   0  0  2  0  0  0  0  0  0  0  0  0
   23.3414  -20.2574  -13.5656 N   0  0  0  0  0  0  0  0  0  0  0  0
   21.3249  -21.1383  -14.5995 C   0  0  0  0  0  0  0  0  0  0  0  0
   19.9611  -21.2767  -14.4896 O   0  0  0  0  0  0  0  0  0  0  0  0
   21.9717  -22.0097  -15.2094 O   0  0  0  0  0  0  0  0  0  0  0  0
  2  1  1  1
  2  3  1  0
  4  2  1  0
  5  6  1  1
  5  4  1  0
  7  5  1  0
  8  7  2  0
  9  7  1  0
 10  9  1  0
 11 12  1  0
 10 11  1  1
 12 16  1  0
 13 12  2  0
 13 14  1  0
 14 15  1  0
 16 15  2  0
 17 10  1  0
 17 18  2  0
 20 19  1  1
 20 22  1  0
 20 21  1  0
 22 23  1  6
 23 17  1  0
 24 22  1  0
 25 24  1  0
 26 24  2  0
M  END
$$$$
