LHV.pdb
     RDKit          3D

 26 26  0  0  1  0  0  0  0  0999 V2000
   20.9461  -11.0827    5.7516 C   0  0  0  0  0  0  0  0  0  0  0  0
   19.5507  -11.5659    5.7122 C   0  0  1  0  0  0  0  0  0  0  0  0
   19.2338  -11.9862    4.2789 C   0  0  0  0  0  0  0  0  0  0  0  0
   19.2518  -12.7408    6.5911 C   0  0  0  0  0  0  0  0  0  0  0  0
   17.8886  -13.3259    6.3858 C   0  0  2  0  0  0  0  0  0  0  0  0
   16.9170  -12.4097    6.9230 N   0  0  0  0  0  0  0  0  0  0  0  0
   17.8046  -14.5829    7.1747 C   0  0  0  0  0  0  0  0  0  0  0  0
   17.7159  -14.5832    8.4365 O   0  0  0  0  0  0  0  0  0  0  0  0
   17.8230  -15.8261    6.5093 N   0  0  0  0  0  0  0  0  0  0  0  0
   17.8802  -17.0950    7.2085 C   0  0  1  0  0  0  0  0  0  0  0  0
   17.3223  -18.1939    6.3251 C   0  0  0  0  0  0  0  0  0  0  0  0
   17.2320  -19.4819    7.0413 C   0  0  0  0  0  0  0  0  0  0  0  0
   16.7055  -19.5643    8.3260 C   0  0  0  0  0  0  0  0  0  0  0  0
   16.7435  -20.8442    8.7336 N   0  0  0  0  0  0  0  0  0  0  0  0
   17.2815  -21.5305    7.7205 C   0  0  0  0  0  0  0  0  0  0  0  0
   17.5778  -20.7200    6.7000 N   0  0  0  0  0  0  0  0  0  0  0  0
   19.2914  -17.3648    7.5540 C   0  0  0  0  0  0  0  0  0  0  0  0
   20.1650  -17.3265    6.6815 O   0  0  0  0  0  0  0  0  0  0  0  0
   22.6494  -17.7960   11.1485 C   0  0  0  0  0  0  0  0  0  0  0  0
   21.3773  -17.3053   10.5445 C   0  0  1  0  0  0  0  0  0  0  0  0
   21.4361  -15.8245   10.3676 C   0  0  0  0  0  0  0  0  0  0  0  0
   20.9870  -18.0394    9.2864 C   0  0  2  0  0  0  0  0  0  0  0  0
   19.6426  -17.6721    8.9113 N   0  0  0  0  0  0  0  0  0  0  0  0
   21.1888  -19.4893    9.3780 C   0  0  0  0  0  0  0  0  0  0  0  0
   22.2953  -20.0673    8.8012 O   0  0  0  0  0  0  0  0  0  0  0  0
   20.3711  -20.2151    9.9732 O   0  0  0  0  0  0  0  0  0  0  0  0
  2  1  1  6
  2  3  1  0
  4  2  1  0
  5  6  1  1
  5  4  1  0
  7  5  1  0
  8  7  2  0
  9  7  1  0
 10  9  1  0
 11 12  1  0
 10 11  1  6
 12 16  1  0
 13 12  2  0
 13 14  1  0
 14 15  1  0
 16 15  2  0
 17 10  1  0
 17 18  2  0
 20 19  1  6
 20 22  1  0
 20 21  1  0
 22 23  1  1
 23 17  1  0
 24 22  1  0
 25 24  1  0
 26 24  2  0
M  END
$$$$
