LHV.pdb
     RDKit          3D

 26 26  0  0  1  0  0  0  0  0999 V2000
   30.0844  -21.5959  -10.2137 C   0  0  0  0  0  0  0  0  0  0  0  0
   28.6701  -21.2326   -9.9898 C   0  0  1  0  0  0  0  0  0  0  0  0
   28.6103  -20.2573   -8.8164 C   0  0  0  0  0  0  0  0  0  0  0  0
   27.9849  -20.5721  -11.1457 C   0  0  0  0  0  0  0  0  0  0  0  0
   26.5334  -20.2859  -10.9129 C   0  0  2  0  0  0  0  0  0  0  0  0
   26.0181  -21.2723  -10.0000 N   0  0  0  0  0  0  0  0  0  0  0  0
   25.8190  -20.4536  -12.2055 C   0  0  0  0  0  0  0  0  0  0  0  0
   26.1713  -19.8428  -13.2556 O   0  0  0  0  0  0  0  0  0  0  0  0
   24.7085  -21.3195  -12.2810 N   0  0  0  0  0  0  0  0  0  0  0  0
   23.9622  -21.5416  -13.5042 C   0  0  1  0  0  0  0  0  0  0  0  0
   23.7957  -23.0299  -13.7412 C   0  0  0  0  0  0  0  0  0  0  0  0
   23.0464  -23.3081  -14.9827 C   0  0  0  0  0  0  0  0  0  0  0  0
   21.7512  -23.8140  -14.9526 C   0  0  0  0  0  0  0  0  0  0  0  0
   21.3128  -23.9707  -16.2131 N   0  0  0  0  0  0  0  0  0  0  0  0
   22.3178  -23.5695  -16.9980 C   0  0  0  0  0  0  0  0  0  0  0  0
   23.3629  -23.1700  -16.2671 N   0  0  0  0  0  0  0  0  0  0  0  0
   22.6473  -20.8818  -13.3650 C   0  0  0  0  0  0  0  0  0  0  0  0
   22.0754  -20.8563  -12.2705 O   0  0  0  0  0  0  0  0  0  0  0  0
   21.7953  -17.4564  -15.2249 C   0  0  0  0  0  0  0  0  0  0  0  0
   20.7205  -18.4701  -15.4276 C   0  0  1  0  0  0  0  0  0  0  0  0
   20.7243  -18.9393  -16.8444 C   0  0  0  0  0  0  0  0  0  0  0  0
   20.7619  -19.5980  -14.4275 C   0  0  2  0  0  0  0  0  0  0  0  0
   22.0369  -20.2694  -14.5107 N   0  0  0  0  0  0  0  0  0  0  0  0
   19.6176  -20.5089  -14.5372 C   0  0  0  0  0  0  0  0  0  0  0  0
   19.7708  -21.7360  -15.1390 O   0  0  0  0  0  0  0  0  0  0  0  0
   18.4991  -20.1914  -14.0924 O   0  0  0  0  0  0  0  0  0  0  0  0
  2  1  1  6
  2  3  1  0
  4  2  1  0
  5  6  1  1
  5  4  1  0
  7  5  1  0
  8  7  2  0
  9  7  1  0
 10  9  1  0
 11 12  1  0
 10 11  1  1
 12 16  1  0
 13 12  2  0
 13 14  1  0
 14 15  1  0
 16 15  2  0
 17 10  1  0
 17 18  2  0
 20 19  1  6
 20 22  1  0
 20 21  1  0
 22 23  1  6
 23 17  1  0
 24 22  1  0
 25 24  1  0
 26 24  2  0
M  END
$$$$
