LHV.pdb
     RDKit          3D

 26 26  0  0  1  0  0  0  0  0999 V2000
   22.5657  -17.9412  -16.9491 C   0  0  0  0  0  0  0  0  0  0  0  0
   22.8144  -19.0322  -15.9846 C   0  0  1  0  0  0  0  0  0  0  0  0
   23.7504  -18.5033  -14.9003 C   0  0  0  0  0  0  0  0  0  0  0  0
   21.5996  -19.5689  -15.2932 C   0  0  0  0  0  0  0  0  0  0  0  0
   21.8813  -20.7020  -14.3553 C   0  0  2  0  0  0  0  0  0  0  0  0
   22.8316  -21.5831  -14.9820 N   0  0  0  0  0  0  0  0  0  0  0  0
   20.6199  -21.4648  -14.1643 C   0  0  0  0  0  0  0  0  0  0  0  0
   19.4911  -20.9942  -14.4874 O   0  0  0  0  0  0  0  0  0  0  0  0
   20.6654  -22.7585  -13.6051 N   0  0  0  0  0  0  0  0  0  0  0  0
   19.4833  -23.5740  -13.4046 C   0  0  1  0  0  0  0  0  0  0  0  0
   19.2858  -24.4933  -14.5941 C   0  0  0  0  0  0  0  0  0  0  0  0
   18.7750  -23.7651  -15.7726 C   0  0  0  0  0  0  0  0  0  0  0  0
   19.6037  -23.4379  -16.8406 C   0  0  0  0  0  0  0  0  0  0  0  0
   18.8847  -22.7831  -17.7681 N   0  0  0  0  0  0  0  0  0  0  0  0
   17.6430  -22.7110  -17.2785 C   0  0  0  0  0  0  0  0  0  0  0  0
   17.5682  -23.2983  -16.0804 N   0  0  0  0  0  0  0  0  0  0  0  0
   19.6698  -24.3541  -12.1635 C   0  0  0  0  0  0  0  0  0  0  0  0
   20.6796  -25.0486  -12.0095 O   0  0  0  0  0  0  0  0  0  0  0  0
   17.2727  -23.3086   -8.7972 C   0  0  0  0  0  0  0  0  0  0  0  0
   18.6241  -23.9376   -8.7529 C   0  0  1  0  0  0  0  0  0  0  0  0
   18.8837  -24.4899   -7.3909 C   0  0  0  0  0  0  0  0  0  0  0  0
   18.8568  -24.9399   -9.8553 C   0  0  2  0  0  0  0  0  0  0  0  0
   18.6693  -24.3004  -11.1357 N   0  0  0  0  0  0  0  0  0  0  0  0
   18.0669  -26.1656   -9.6972 C   0  0  0  0  0  0  0  0  0  0  0  0
   17.0311  -26.4324  -10.5615 O   0  0  0  0  0  0  0  0  0  0  0  0
   18.3171  -26.9778   -8.7876 O   0  0  0  0  0  0  0  0  0  0  0  0
  2  1  1  6
  2  3  1  0
  4  2  1  0
  5  6  1  6
  5  4  1  0
  7  5  1  0
  8  7  2  0
  9  7  1  0
 10  9  1  0
 11 12  1  0
 10 11  1  6
 12 16  1  0
 13 12  2  0
 13 14  1  0
 14 15  1  0
 16 15  2  0
 17 10  1  0
 17 18  2  0
 20 19  1  1
 20 22  1  0
 20 21  1  0
 22 23  1  6
 23 17  1  0
 24 22  1  0
 25 24  1  0
 26 24  2  0
M  END
$$$$
