LHV.pdb
     RDKit          3D

 26 26  0  0  1  0  0  0  0  0999 V2000
   28.3213  -18.0839  -15.0090 C   0  0  0  0  0  0  0  0  0  0  0  0
   27.7212  -19.4163  -14.7922 C   0  0  1  0  0  0  0  0  0  0  0  0
   27.9715  -19.8194  -13.3408 C   0  0  0  0  0  0  0  0  0  0  0  0
   26.2444  -19.5021  -15.0237 C   0  0  0  0  0  0  0  0  0  0  0  0
   25.6581  -20.8496  -14.7350 C   0  0  2  0  0  0  0  0  0  0  0  0
   26.1725  -21.7839  -15.7018 N   0  0  0  0  0  0  0  0  0  0  0  0
   24.1875  -20.7628  -14.9327 C   0  0  0  0  0  0  0  0  0  0  0  0
   23.6674  -20.6268  -16.0777 O   0  0  0  0  0  0  0  0  0  0  0  0
   23.3287  -20.8328  -13.8165 N   0  0  0  0  0  0  0  0  0  0  0  0
   21.8838  -20.7821  -13.9276 C   0  0  1  0  0  0  0  0  0  0  0  0
   21.2518  -21.3491  -12.6714 C   0  0  0  0  0  0  0  0  0  0  0  0
   19.7788  -21.3851  -12.7656 C   0  0  0  0  0  0  0  0  0  0  0  0
   19.1070  -20.8546  -13.8618 C   0  0  0  0  0  0  0  0  0  0  0  0
   17.7849  -21.0212  -13.6878 N   0  0  0  0  0  0  0  0  0  0  0  0
   17.6503  -21.6402  -12.5107 C   0  0  0  0  0  0  0  0  0  0  0  0
   18.8428  -21.8626  -11.9500 N   0  0  0  0  0  0  0  0  0  0  0  0
   21.4885  -19.3717  -14.1236 C   0  0  0  0  0  0  0  0  0  0  0  0
   21.8340  -18.5088  -13.3102 O   0  0  0  0  0  0  0  0  0  0  0  0
   22.2504  -17.1098  -16.9057 C   0  0  0  0  0  0  0  0  0  0  0  0
   20.7627  -17.1682  -16.8214 C   0  0  1  0  0  0  0  0  0  0  0  0
   20.2177  -17.9420  -17.9753 C   0  0  0  0  0  0  0  0  0  0  0  0
   20.2552  -17.6537  -15.4869 C   0  0  2  0  0  0  0  0  0  0  0  0
   20.6994  -19.0091  -15.2664 N   0  0  0  0  0  0  0  0  0  0  0  0
   18.8076  -17.4830  -15.3232 C   0  0  0  0  0  0  0  0  0  0  0  0
   18.2858  -16.2344  -15.0786 O   0  0  0  0  0  0  0  0  0  0  0  0
   18.0335  -18.4548  -15.4018 O   0  0  0  0  0  0  0  0  0  0  0  0
  2  1  1  1
  2  3  1  0
  4  2  1  0
  5  6  1  6
  5  4  1  0
  7  5  1  0
  8  7  2  0
  9  7  1  0
 10  9  1  0
 11 12  1  0
 10 11  1  1
 12 16  1  0
 13 12  2  0
 13 14  1  0
 14 15  1  0
 16 15  2  0
 17 10  1  0
 17 18  2  0
 20 19  1  1
 20 22  1  0
 20 21  1  0
 22 23  1  6
 23 17  1  0
 24 22  1  0
 25 24  1  0
 26 24  2  0
M  END
$$$$
