TYW.pdb
     RDKit          3D

 34 36  0  0  1  0  0  0  0  0999 V2000
    7.4764  -20.0198   25.1531 C   0  0  0  0  0  0  0  0  0  0  0  0
    7.7305  -21.0518   24.1034 C   0  0  1  0  0  0  0  0  0  0  0  0
    7.3393  -22.3289   24.4817 O   0  0  0  0  0  0  0  0  0  0  0  0
    7.0816  -20.6878   22.7742 C   0  0  2  0  0  0  0  0  0  0  0  0
    7.1779  -21.7353   21.8146 N   0  0  0  0  0  0  0  0  0  0  0  0
    7.6440  -19.4012   22.3426 C   0  0  0  0  0  0  0  0  0  0  0  0
    8.7868  -19.4679   21.7719 O   0  0  0  0  0  0  0  0  0  0  0  0
    8.7232  -11.5275   18.7383 O   0  0  0  0  0  0  0  0  0  0  0  0
    8.2221  -12.5883   19.4994 C   0  0  0  0  0  0  0  0  0  0  0  0
    8.6289  -12.8117   20.7949 C   0  0  0  0  0  0  0  0  0  0  0  0
    8.1168  -13.8793   21.5438 C   0  0  0  0  0  0  0  0  0  0  0  0
    7.1906  -14.7243   20.9818 C   0  0  0  0  0  0  0  0  0  0  0  0
    6.6288  -15.8500   21.7246 C   0  0  0  0  0  0  0  0  0  0  0  0
    7.6041  -16.9720   21.9827 C   0  0  2  0  0  0  0  0  0  0  0  0
    7.0177  -18.1454   22.5168 N   0  0  0  0  0  0  0  0  0  0  0  0
    8.7720  -16.4927   22.8150 C   0  0  0  0  0  0  0  0  0  0  0  0
    9.6425  -15.7748   22.2518 O   0  0  0  0  0  0  0  0  0  0  0  0
    6.7984  -14.4826   19.6860 C   0  0  0  0  0  0  0  0  0  0  0  0
    7.3012  -13.4306   18.9446 C   0  0  0  0  0  0  0  0  0  0  0  0
    8.8851  -16.8392   24.1829 N   0  0  0  0  0  0  0  0  0  0  0  0
   10.0549  -16.3541   24.9246 C   0  0  1  0  0  0  0  0  0  0  0  0
    9.8007  -15.0050   25.4872 C   0  0  0  0  0  0  0  0  0  0  0  0
    8.4151  -14.8280   25.9190 C   0  0  0  0  0  0  0  0  0  0  0  0
    7.4466  -15.8327   25.9914 C   0  0  0  0  0  0  0  0  0  0  0  0
    6.2841  -15.3075   26.3851 N   0  0  0  0  0  0  0  0  0  0  0  0
    6.4492  -13.9935   26.5765 C   0  0  0  0  0  0  0  0  0  0  0  0
    5.5738  -13.0192   26.9962 C   0  0  0  0  0  0  0  0  0  0  0  0
    5.9506  -11.7050   27.1551 C   0  0  0  0  0  0  0  0  0  0  0  0
    7.2639  -11.3918   26.8733 C   0  0  0  0  0  0  0  0  0  0  0  0
    8.1296  -12.3656   26.4554 C   0  0  0  0  0  0  0  0  0  0  0  0
    7.7723  -13.6821   26.2901 C   0  0  0  0  0  0  0  0  0  0  0  0
   10.4302  -17.3747   25.8935 C   0  0  0  0  0  0  0  0  0  0  0  0
   11.4446  -17.3219   26.6641 O   0  0  0  0  0  0  0  0  0  0  0  0
    9.6208  -18.5229   26.0058 O   0  0  0  0  0  0  0  0  0  0  0  0
  2  1  1  1
  2  3  1  0
  4  5  1  6
  4  2  1  0
  6  7  2  0
  6  4  1  0
  8  9  1  0
  9 19  2  0
  9 10  1  0
 10 11  2  0
 11 12  1  0
 12 13  1  0
 14 13  1  1
 14 15  1  0
 15  6  1  0
 16 14  1  0
 16 20  1  0
 17 16  2  0
 18 12  2  0
 19 18  1  0
 21 20  1  0
 21 32  1  0
 21 22  1  1
 23 22  1  0
 24 23  2  0
 25 26  1  0
 25 24  1  0
 26 31  2  0
 27 26  1  0
 27 28  2  0
 28 29  1  0
 29 30  2  0
 31 23  1  0
 31 30  1  0
 32 33  2  0
 32 34  1  0
M  END
$$$$
