TYW.pdb
     RDKit          3D

 34 36  0  0  1  0  0  0  0  0999 V2000
    5.9044  -21.3457   25.1230 C   0  0  0  0  0  0  0  0  0  0  0  0
    6.7501  -20.3024   24.4688 C   0  0  1  0  0  0  0  0  0  0  0  0
    8.0998  -20.4191   24.7717 O   0  0  0  0  0  0  0  0  0  0  0  0
    6.5626  -20.2790   22.9573 C   0  0  2  0  0  0  0  0  0  0  0  0
    6.9519  -21.5014   22.3397 N   0  0  0  0  0  0  0  0  0  0  0  0
    7.2437  -19.0831   22.4435 C   0  0  0  0  0  0  0  0  0  0  0  0
    8.3763  -19.2951   21.8880 O   0  0  0  0  0  0  0  0  0  0  0  0
    9.1216  -11.5801   18.4498 O   0  0  0  0  0  0  0  0  0  0  0  0
    8.5181  -12.5131   19.2988 C   0  0  0  0  0  0  0  0  0  0  0  0
    8.4617  -12.3290   20.6614 C   0  0  0  0  0  0  0  0  0  0  0  0
    7.8532  -13.2739   21.4980 C   0  0  0  0  0  0  0  0  0  0  0  0
    7.2998  -14.4087   20.9561 C   0  0  0  0  0  0  0  0  0  0  0  0
    6.6546  -15.4208   21.7892 C   0  0  0  0  0  0  0  0  0  0  0  0
    7.4612  -16.6832   21.9688 C   0  0  2  0  0  0  0  0  0  0  0  0
    6.7374  -17.7654   22.5264 N   0  0  0  0  0  0  0  0  0  0  0  0
    8.7392  -16.4052   22.7277 C   0  0  0  0  0  0  0  0  0  0  0  0
    9.7547  -16.0576   22.0657 O   0  0  0  0  0  0  0  0  0  0  0  0
    7.3675  -14.5723   19.5923 C   0  0  0  0  0  0  0  0  0  0  0  0
    7.9667  -13.6426   18.7642 C   0  0  0  0  0  0  0  0  0  0  0  0
    8.7942  -16.5314   24.1367 N   0  0  0  0  0  0  0  0  0  0  0  0
   10.0234  -16.1131   24.8208 C   0  0  1  0  0  0  0  0  0  0  0  0
    9.7103  -15.2605   25.9940 C   0  0  0  0  0  0  0  0  0  0  0  0
    8.2808  -14.9804   26.1197 C   0  0  0  0  0  0  0  0  0  0  0  0
    7.2567  -15.9308   26.1005 C   0  0  0  0  0  0  0  0  0  0  0  0
    6.0744  -15.3183   26.1977 N   0  0  0  0  0  0  0  0  0  0  0  0
    6.2799  -13.9987   26.2815 C   0  0  0  0  0  0  0  0  0  0  0  0
    5.4014  -12.9488   26.4150 C   0  0  0  0  0  0  0  0  0  0  0  0
    5.8205  -11.6412   26.5094 C   0  0  0  0  0  0  0  0  0  0  0  0
    7.1803  -11.4148   26.4647 C   0  0  0  0  0  0  0  0  0  0  0  0
    8.0490  -12.4636   26.3310 C   0  0  0  0  0  0  0  0  0  0  0  0
    7.6500  -13.7750   26.2345 C   0  0  0  0  0  0  0  0  0  0  0  0
   10.8091  -17.3056   25.1069 C   0  0  0  0  0  0  0  0  0  0  0  0
   11.9853  -17.3129   25.5989 O   0  0  0  0  0  0  0  0  0  0  0  0
   10.2432  -18.5652   24.8250 O   0  0  0  0  0  0  0  0  0  0  0  0
  2  1  1  6
  2  3  1  0
  4  5  1  6
  4  2  1  0
  6  7  2  0
  6  4  1  0
  8  9  1  0
  9 19  2  0
  9 10  1  0
 10 11  2  0
 11 12  1  0
 12 13  1  0
 14 13  1  1
 14 15  1  0
 15  6  1  0
 16 14  1  0
 16 20  1  0
 17 16  2  0
 18 12  2  0
 19 18  1  0
 21 20  1  0
 21 32  1  0
 21 22  1  1
 23 22  1  0
 24 23  2  0
 25 26  1  0
 25 24  1  0
 26 31  2  0
 27 26  1  0
 27 28  2  0
 28 29  1  0
 29 30  2  0
 31 23  1  0
 31 30  1  0
 32 33  2  0
 32 34  1  0
M  END
$$$$
