TYW.pdb
     RDKit          3D

 34 36  0  0  1  0  0  0  0  0999 V2000
    8.1579  -13.1625   20.5179 C   0  0  0  0  0  0  0  0  0  0  0  0
    7.8301  -13.5370   19.1094 C   0  0  1  0  0  0  0  0  0  0  0  0
    7.4201  -12.4601   18.3352 O   0  0  0  0  0  0  0  0  0  0  0  0
    8.9867  -14.2525   18.4236 C   0  0  2  0  0  0  0  0  0  0  0  0
    8.6854  -14.6140   17.0798 N   0  0  0  0  0  0  0  0  0  0  0  0
    9.3933  -15.3693   19.2871 C   0  0  0  0  0  0  0  0  0  0  0  0
    9.3834  -16.5215   18.7318 O   0  0  0  0  0  0  0  0  0  0  0  0
   15.3591  -14.1774   18.4355 O   0  0  0  0  0  0  0  0  0  0  0  0
   14.3464  -14.9596   18.9997 C   0  0  0  0  0  0  0  0  0  0  0  0
   14.3599  -16.3337   18.9252 C   0  0  0  0  0  0  0  0  0  0  0  0
   13.3372  -17.1026   19.4960 C   0  0  0  0  0  0  0  0  0  0  0  0
   12.2972  -16.4812   20.1440 C   0  0  0  0  0  0  0  0  0  0  0  0
   11.2094  -17.2420   20.7544 C   0  0  0  0  0  0  0  0  0  0  0  0
   10.1387  -16.3915   21.3922 C   0  0  2  0  0  0  0  0  0  0  0  0
    9.7782  -15.2454   20.6421 N   0  0  0  0  0  0  0  0  0  0  0  0
   10.5019  -16.0442   22.8184 C   0  0  0  0  0  0  0  0  0  0  0  0
   11.3486  -15.1285   23.0053 O   0  0  0  0  0  0  0  0  0  0  0  0
   12.3038  -15.1075   20.2063 C   0  0  0  0  0  0  0  0  0  0  0  0
   13.3107  -14.3459   19.6448 C   0  0  0  0  0  0  0  0  0  0  0  0
    9.9104  -16.7255   23.9093 N   0  0  0  0  0  0  0  0  0  0  0  0
   10.3000  -16.3265   25.2669 C   0  0  1  0  0  0  0  0  0  0  0  0
    9.9314  -14.9132   25.5277 C   0  0  0  0  0  0  0  0  0  0  0  0
    8.4909  -14.7303   25.6979 C   0  0  0  0  0  0  0  0  0  0  0  0
    7.5084  -15.6887   25.4357 C   0  0  0  0  0  0  0  0  0  0  0  0
    6.3007  -15.1665   25.6619 N   0  0  0  0  0  0  0  0  0  0  0  0
    6.4493  -13.8991   26.0649 C   0  0  0  0  0  0  0  0  0  0  0  0
    5.5263  -12.9494   26.4361 C   0  0  0  0  0  0  0  0  0  0  0  0
    5.8887  -11.6876   26.8493 C   0  0  0  0  0  0  0  0  0  0  0  0
    7.2377  -11.4019   26.8792 C   0  0  0  0  0  0  0  0  0  0  0  0
    8.1509  -12.3509   26.5079 C   0  0  0  0  0  0  0  0  0  0  0  0
    7.8087  -13.6152   26.0920 C   0  0  0  0  0  0  0  0  0  0  0  0
    9.7469  -17.2989   26.1995 C   0  0  0  0  0  0  0  0  0  0  0  0
    9.8407  -17.2382   27.4696 O   0  0  0  0  0  0  0  0  0  0  0  0
    9.0466  -18.4053   25.6780 O   0  0  0  0  0  0  0  0  0  0  0  0
  2  1  1  1
  2  3  1  0
  4  5  1  6
  4  2  1  0
  6  7  2  0
  6  4  1  0
  8  9  1  0
  9 19  2  0
  9 10  1  0
 10 11  2  0
 11 12  1  0
 12 13  1  0
 14 13  1  6
 14 15  1  0
 15  6  1  0
 16 14  1  0
 16 20  1  0
 17 16  2  0
 18 12  2  0
 19 18  1  0
 21 20  1  0
 21 32  1  0
 21 22  1  1
 23 22  1  0
 24 23  2  0
 25 26  1  0
 25 24  1  0
 26 31  2  0
 27 26  1  0
 27 28  2  0
 28 29  1  0
 29 30  2  0
 31 23  1  0
 31 30  1  0
 32 33  2  0
 32 34  1  0
M  END
$$$$
