TYW.pdb
     RDKit          3D

 34 36  0  0  1  0  0  0  0  0999 V2000
    9.2822  -13.0475   19.9310 C   0  0  0  0  0  0  0  0  0  0  0  0
    8.2138  -13.4629   18.9731 C   0  0  1  0  0  0  0  0  0  0  0  0
    7.8233  -12.4476   18.1107 O   0  0  0  0  0  0  0  0  0  0  0  0
    8.6125  -14.6945   18.1702 C   0  0  2  0  0  0  0  0  0  0  0  0
    7.5961  -15.1071   17.2625 N   0  0  0  0  0  0  0  0  0  0  0  0
    9.0451  -15.7254   19.1232 C   0  0  0  0  0  0  0  0  0  0  0  0
    8.1012  -16.3716   19.6955 O   0  0  0  0  0  0  0  0  0  0  0  0
   13.4249  -21.2896   24.3635 O   0  0  0  0  0  0  0  0  0  0  0  0
   13.0604  -20.4100   23.3393 C   0  0  0  0  0  0  0  0  0  0  0  0
   12.0096  -20.6746   22.4910 C   0  0  0  0  0  0  0  0  0  0  0  0
   11.6575  -19.7825   21.4697 C   0  0  0  0  0  0  0  0  0  0  0  0
   12.3695  -18.6191   21.3047 C   0  0  0  0  0  0  0  0  0  0  0  0
   12.0383  -17.6593   20.2542 C   0  0  0  0  0  0  0  0  0  0  0  0
   10.7007  -16.9836   20.4300 C   0  0  2  0  0  0  0  0  0  0  0  0
   10.3916  -16.0294   19.4301 N   0  0  0  0  0  0  0  0  0  0  0  0
   10.5633  -16.4101   21.8224 C   0  0  0  0  0  0  0  0  0  0  0  0
   11.4566  -15.6157   22.2240 O   0  0  0  0  0  0  0  0  0  0  0  0
   13.4156  -18.3750   22.1635 C   0  0  0  0  0  0  0  0  0  0  0  0
   13.7656  -19.2523   23.1718 C   0  0  0  0  0  0  0  0  0  0  0  0
    9.4670  -16.7544   22.6493 N   0  0  0  0  0  0  0  0  0  0  0  0
    9.4022  -16.1659   23.9922 C   0  0  1  0  0  0  0  0  0  0  0  0
    8.7236  -14.8469   23.9581 C   0  0  0  0  0  0  0  0  0  0  0  0
    8.4525  -14.3197   25.2946 C   0  0  0  0  0  0  0  0  0  0  0  0
    9.0829  -14.7212   26.4753 C   0  0  0  0  0  0  0  0  0  0  0  0
    8.5591  -14.0607   27.5105 N   0  0  0  0  0  0  0  0  0  0  0  0
    7.6069  -13.2370   27.0570 C   0  0  0  0  0  0  0  0  0  0  0  0
    6.7946  -12.3399   27.7105 C   0  0  0  0  0  0  0  0  0  0  0  0
    5.8781  -11.5542   27.0494 C   0  0  0  0  0  0  0  0  0  0  0  0
    5.8005  -11.7002   25.6801 C   0  0  0  0  0  0  0  0  0  0  0  0
    6.6109  -12.5951   25.0360 C   0  0  0  0  0  0  0  0  0  0  0  0
    7.5309  -13.3884   25.6783 C   0  0  0  0  0  0  0  0  0  0  0  0
    8.8109  -17.1500   24.8883 C   0  0  0  0  0  0  0  0  0  0  0  0
    8.5835  -16.9732   26.1304 O   0  0  0  0  0  0  0  0  0  0  0  0
    8.4527  -18.4071   24.3615 O   0  0  0  0  0  0  0  0  0  0  0  0
  2  1  1  6
  2  3  1  0
  4  5  1  1
  4  2  1  0
  6  7  2  0
  6  4  1  0
  8  9  1  0
  9 19  2  0
  9 10  1  0
 10 11  2  0
 11 12  1  0
 12 13  1  0
 14 13  1  6
 14 15  1  0
 15  6  1  0
 16 14  1  0
 16 20  1  0
 17 16  2  0
 18 12  2  0
 19 18  1  0
 21 20  1  0
 21 32  1  0
 21 22  1  6
 23 22  1  0
 24 23  2  0
 25 26  1  0
 25 24  1  0
 26 31  2  0
 27 26  1  0
 27 28  2  0
 28 29  1  0
 29 30  2  0
 31 23  1  0
 31 30  1  0
 32 33  2  0
 32 34  1  0
M  END
$$$$
