TYW.pdb
     RDKit          3D

 34 36  0  0  1  0  0  0  0  0999 V2000
   11.7569  -22.5552   22.8505 C   0  0  0  0  0  0  0  0  0  0  0  0
   11.7271  -21.1264   22.4154 C   0  0  1  0  0  0  0  0  0  0  0  0
   12.8520  -20.7472   21.6956 O   0  0  0  0  0  0  0  0  0  0  0  0
   10.4716  -20.7971   21.6182 C   0  0  2  0  0  0  0  0  0  0  0  0
   10.4606  -21.4164   20.3362 N   0  0  0  0  0  0  0  0  0  0  0  0
   10.3279  -19.3353   21.5992 C   0  0  0  0  0  0  0  0  0  0  0  0
   11.3895  -18.6853   21.3047 O   0  0  0  0  0  0  0  0  0  0  0  0
    7.7708  -11.1279   20.2460 O   0  0  0  0  0  0  0  0  0  0  0  0
    7.7530  -12.4939   20.5450 C   0  0  0  0  0  0  0  0  0  0  0  0
    7.2926  -12.9699   21.7514 C   0  0  0  0  0  0  0  0  0  0  0  0
    7.2817  -14.3419   22.0350 C   0  0  0  0  0  0  0  0  0  0  0  0
    7.7375  -15.2360   21.0967 C   0  0  0  0  0  0  0  0  0  0  0  0
    7.7444  -16.6753   21.3481 C   0  0  0  0  0  0  0  0  0  0  0  0
    9.0839  -17.2247   21.7730 C   0  0  2  0  0  0  0  0  0  0  0  0
    9.1305  -18.6364   21.8776 N   0  0  0  0  0  0  0  0  0  0  0  0
    9.5715  -16.5467   23.0336 C   0  0  0  0  0  0  0  0  0  0  0  0
    9.5527  -15.2863   23.0706 O   0  0  0  0  0  0  0  0  0  0  0  0
    8.1931  -14.7385   19.8983 C   0  0  0  0  0  0  0  0  0  0  0  0
    8.2053  -13.3862   19.6151 C   0  0  0  0  0  0  0  0  0  0  0  0
   10.0347  -17.3027   24.1373 N   0  0  0  0  0  0  0  0  0  0  0  0
   10.3798  -16.5857   25.3704 C   0  0  1  0  0  0  0  0  0  0  0  0
    9.9836  -15.1588   25.2797 C   0  0  0  0  0  0  0  0  0  0  0  0
    8.6245  -14.9210   25.7635 C   0  0  0  0  0  0  0  0  0  0  0  0
    7.6230  -15.8865   25.8955 C   0  0  0  0  0  0  0  0  0  0  0  0
    6.4981  -15.3101   26.3251 N   0  0  0  0  0  0  0  0  0  0  0  0
    6.7199  -13.9999   26.4828 C   0  0  0  0  0  0  0  0  0  0  0  0
    5.8995  -12.9852   26.9176 C   0  0  0  0  0  0  0  0  0  0  0  0
    6.3313  -11.6835   27.0342 C   0  0  0  0  0  0  0  0  0  0  0  0
    7.6426  -11.4260   26.6931 C   0  0  0  0  0  0  0  0  0  0  0  0
    8.4535  -12.4398   26.2605 C   0  0  0  0  0  0  0  0  0  0  0  0
    8.0407  -13.7446   26.1368 C   0  0  0  0  0  0  0  0  0  0  0  0
    9.8147  -17.3210   26.4935 C   0  0  0  0  0  0  0  0  0  0  0  0
    9.0523  -18.3387   26.3994 O   0  0  0  0  0  0  0  0  0  0  0  0
   10.1221  -16.8906   27.7998 O   0  0  0  0  0  0  0  0  0  0  0  0
  2  1  1  6
  2  3  1  0
  4  5  1  6
  4  2  1  0
  6  7  2  0
  6  4  1  0
  8  9  1  0
  9 19  2  0
  9 10  1  0
 10 11  2  0
 11 12  1  0
 12 13  1  0
 14 13  1  1
 14 15  1  0
 15  6  1  0
 16 14  1  0
 16 20  1  0
 17 16  2  0
 18 12  2  0
 19 18  1  0
 21 20  1  0
 21 32  1  0
 21 22  1  6
 23 22  1  0
 24 23  2  0
 25 26  1  0
 25 24  1  0
 26 31  2  0
 27 26  1  0
 27 28  2  0
 28 29  1  0
 29 30  2  0
 31 23  1  0
 31 30  1  0
 32 33  2  0
 32 34  1  0
M  END
$$$$
