TYW.pdb
     RDKit          3D

 34 36  0  0  1  0  0  0  0  0999 V2000
    7.8940  -20.8360   20.8240 C   0  0  0  0  0  0  0  0  0  0  0  0
    8.6712  -19.6528   21.3008 C   0  0  1  0  0  0  0  0  0  0  0  0
    9.8591  -19.9936   21.9331 O   0  0  0  0  0  0  0  0  0  0  0  0
    8.9523  -18.6625   20.1780 C   0  0  2  0  0  0  0  0  0  0  0  0
    9.7305  -19.2315   19.1302 N   0  0  0  0  0  0  0  0  0  0  0  0
    9.5238  -17.4530   20.7848 C   0  0  0  0  0  0  0  0  0  0  0  0
   10.7445  -17.2154   20.4854 O   0  0  0  0  0  0  0  0  0  0  0  0
    7.1152  -12.7736   16.8123 O   0  0  0  0  0  0  0  0  0  0  0  0
    7.4718  -13.1315   18.1163 C   0  0  0  0  0  0  0  0  0  0  0  0
    6.6738  -13.9387   18.8945 C   0  0  0  0  0  0  0  0  0  0  0  0
    7.0459  -14.2880   20.1993 C   0  0  0  0  0  0  0  0  0  0  0  0
    8.2281  -13.8200   20.7197 C   0  0  0  0  0  0  0  0  0  0  0  0
    8.6571  -14.1583   22.0748 C   0  0  0  0  0  0  0  0  0  0  0  0
    9.4704  -15.4256   22.1702 C   0  0  2  0  0  0  0  0  0  0  0  0
    8.8277  -16.5739   21.6464 N   0  0  0  0  0  0  0  0  0  0  0  0
    9.9636  -15.6468   23.5824 C   0  0  0  0  0  0  0  0  0  0  0  0
   10.8304  -14.8510   24.0359 O   0  0  0  0  0  0  0  0  0  0  0  0
    9.0099  -13.0149   19.9248 C   0  0  0  0  0  0  0  0  0  0  0  0
    8.6462  -12.6685   18.6376 C   0  0  0  0  0  0  0  0  0  0  0  0
    9.4684  -16.7136   24.3704 N   0  0  0  0  0  0  0  0  0  0  0  0
    9.9593  -16.8417   25.7475 C   0  0  1  0  0  0  0  0  0  0  0  0
    9.6450  -15.6243   26.5352 C   0  0  0  0  0  0  0  0  0  0  0  0
    8.2340  -15.2502   26.4526 C   0  0  0  0  0  0  0  0  0  0  0  0
    7.1845  -16.0951   26.0817 C   0  0  0  0  0  0  0  0  0  0  0  0
    6.0384  -15.4104   26.0750 N   0  0  0  0  0  0  0  0  0  0  0  0
    6.2920  -14.1450   26.4289 C   0  0  0  0  0  0  0  0  0  0  0  0
    5.4594  -13.0621   26.5896 C   0  0  0  0  0  0  0  0  0  0  0  0
    5.9196  -11.8282   26.9895 C   0  0  0  0  0  0  0  0  0  0  0  0
    7.2730  -11.7122   27.2288 C   0  0  0  0  0  0  0  0  0  0  0  0
    8.0961  -12.7932   27.0663 C   0  0  0  0  0  0  0  0  0  0  0  0
    7.6557  -14.0322   26.6672 C   0  0  0  0  0  0  0  0  0  0  0  0
    9.4467  -18.0901   26.2952 C   0  0  0  0  0  0  0  0  0  0  0  0
    8.6047  -18.8562   25.7209 O   0  0  0  0  0  0  0  0  0  0  0  0
    9.9048  -18.5050   27.5617 O   0  0  0  0  0  0  0  0  0  0  0  0
  2  1  1  6
  2  3  1  0
  4  5  1  6
  4  2  1  0
  6  7  2  0
  6  4  1  0
  8  9  1  0
  9 19  2  0
  9 10  1  0
 10 11  2  0
 11 12  1  0
 12 13  1  0
 14 13  1  1
 14 15  1  0
 15  6  1  0
 16 14  1  0
 16 20  1  0
 17 16  2  0
 18 12  2  0
 19 18  1  0
 21 20  1  0
 21 32  1  0
 21 22  1  1
 23 22  1  0
 24 23  2  0
 25 26  1  0
 25 24  1  0
 26 31  2  0
 27 26  1  0
 27 28  2  0
 28 29  1  0
 29 30  2  0
 31 23  1  0
 31 30  1  0
 32 33  2  0
 32 34  1  0
M  END
$$$$
