TYW.pdb
     RDKit          3D

 34 36  0  0  1  0  0  0  0  0999 V2000
    8.9123  -20.8195   20.5407 C   0  0  0  0  0  0  0  0  0  0  0  0
    9.3637  -19.5308   21.1465 C   0  0  1  0  0  0  0  0  0  0  0  0
   10.5419  -19.6468   21.8715 O   0  0  0  0  0  0  0  0  0  0  0  0
    9.5072  -18.4283   20.1053 C   0  0  2  0  0  0  0  0  0  0  0  0
   10.4456  -18.7582   19.0865 N   0  0  0  0  0  0  0  0  0  0  0  0
    9.7865  -17.1756   20.8200 C   0  0  0  0  0  0  0  0  0  0  0  0
   10.9618  -16.7000   20.6510 O   0  0  0  0  0  0  0  0  0  0  0  0
    7.1455  -13.0536   16.5348 O   0  0  0  0  0  0  0  0  0  0  0  0
    7.3828  -13.3488   17.8810 C   0  0  0  0  0  0  0  0  0  0  0  0
    6.7534  -14.3924   18.5202 C   0  0  0  0  0  0  0  0  0  0  0  0
    7.0026  -14.6746   19.8697 C   0  0  0  0  0  0  0  0  0  0  0  0
    7.8906  -13.8998   20.5759 C   0  0  0  0  0  0  0  0  0  0  0  0
    8.1820  -14.1571   21.9843 C   0  0  0  0  0  0  0  0  0  0  0  0
    9.2032  -15.2428   22.2186 C   0  0  2  0  0  0  0  0  0  0  0  0
    8.8659  -16.4955   21.6504 N   0  0  0  0  0  0  0  0  0  0  0  0
    9.5412  -15.3595   23.6878 C   0  0  0  0  0  0  0  0  0  0  0  0
   10.0148  -14.3441   24.2667 O   0  0  0  0  0  0  0  0  0  0  0  0
    8.5080  -12.8623   19.9175 C   0  0  0  0  0  0  0  0  0  0  0  0
    8.2649  -12.5811   18.5867 C   0  0  0  0  0  0  0  0  0  0  0  0
    9.3330  -16.5702   24.3913 N   0  0  0  0  0  0  0  0  0  0  0  0
    9.7441  -16.6315   25.7989 C   0  0  1  0  0  0  0  0  0  0  0  0
    8.5704  -16.8373   26.6829 C   0  0  0  0  0  0  0  0  0  0  0  0
    7.5272  -15.8343   26.4745 C   0  0  0  0  0  0  0  0  0  0  0  0
    6.2765  -16.0638   25.8951 C   0  0  0  0  0  0  0  0  0  0  0  0
    5.5970  -14.9166   25.8258 N   0  0  0  0  0  0  0  0  0  0  0  0
    6.3522  -13.9384   26.3391 C   0  0  0  0  0  0  0  0  0  0  0  0
    6.1054  -12.5967   26.5142 C   0  0  0  0  0  0  0  0  0  0  0  0
    7.0191  -11.7462   27.0939 C   0  0  0  0  0  0  0  0  0  0  0  0
    8.2159  -12.2969   27.5021 C   0  0  0  0  0  0  0  0  0  0  0  0
    8.4556  -13.6323   27.3243 C   0  0  0  0  0  0  0  0  0  0  0  0
    7.5568  -14.4969   26.7472 C   0  0  0  0  0  0  0  0  0  0  0  0
   10.7988  -17.6288   25.9181 C   0  0  0  0  0  0  0  0  0  0  0  0
   11.4202  -17.9196   26.9929 O   0  0  0  0  0  0  0  0  0  0  0  0
   11.1801  -18.3430   24.7646 O   0  0  0  0  0  0  0  0  0  0  0  0
  2  1  1  6
  2  3  1  0
  4  5  1  6
  4  2  1  0
  6  7  2  0
  6  4  1  0
  8  9  1  0
  9 19  2  0
  9 10  1  0
 10 11  2  0
 11 12  1  0
 12 13  1  0
 14 13  1  1
 14 15  1  0
 15  6  1  0
 16 14  1  0
 16 20  1  0
 17 16  2  0
 18 12  2  0
 19 18  1  0
 21 20  1  0
 21 32  1  0
 21 22  1  1
 23 22  1  0
 24 23  2  0
 25 26  1  0
 25 24  1  0
 26 31  2  0
 27 26  1  0
 27 28  2  0
 28 29  1  0
 29 30  2  0
 31 23  1  0
 31 30  1  0
 32 33  2  0
 32 34  1  0
M  END
$$$$
