TYW.pdb
     RDKit          3D

 34 36  0  0  1  0  0  0  0  0999 V2000
    8.9432  -19.8107   22.4829 C   0  0  0  0  0  0  0  0  0  0  0  0
    9.6664  -19.8002   21.1759 C   0  0  1  0  0  0  0  0  0  0  0  0
    9.4921  -20.9653   20.4416 O   0  0  0  0  0  0  0  0  0  0  0  0
    9.2912  -18.5945   20.3240 C   0  0  2  0  0  0  0  0  0  0  0  0
    9.7729  -18.6986   18.9882 N   0  0  0  0  0  0  0  0  0  0  0  0
    9.7237  -17.3895   21.0443 C   0  0  0  0  0  0  0  0  0  0  0  0
   10.9454  -17.0550   20.8665 O   0  0  0  0  0  0  0  0  0  0  0  0
    7.1175  -13.1204   16.9022 O   0  0  0  0  0  0  0  0  0  0  0  0
    7.4304  -13.4103   18.2340 C   0  0  0  0  0  0  0  0  0  0  0  0
    6.6681  -14.2703   18.9911 C   0  0  0  0  0  0  0  0  0  0  0  0
    6.9956  -14.5500   20.3243 C   0  0  0  0  0  0  0  0  0  0  0  0
    8.0968  -13.9587   20.8946 C   0  0  0  0  0  0  0  0  0  0  0  0
    8.4769  -14.2208   22.2808 C   0  0  0  0  0  0  0  0  0  0  0  0
    9.3861  -15.4115   22.4606 C   0  0  2  0  0  0  0  0  0  0  0  0
    8.8979  -16.6118   21.8887 N   0  0  0  0  0  0  0  0  0  0  0  0
    9.7641  -15.5889   23.9139 C   0  0  0  0  0  0  0  0  0  0  0  0
   10.4167  -14.6646   24.4708 O   0  0  0  0  0  0  0  0  0  0  0  0
    8.8441  -13.1027   20.1200 C   0  0  0  0  0  0  0  0  0  0  0  0
    8.5242  -12.8246   18.8049 C   0  0  0  0  0  0  0  0  0  0  0  0
    9.3973  -16.7556   24.6269 N   0  0  0  0  0  0  0  0  0  0  0  0
    9.7474  -16.8350   26.0499 C   0  0  1  0  0  0  0  0  0  0  0  0
    8.5266  -16.8793   26.8920 C   0  0  0  0  0  0  0  0  0  0  0  0
    7.5476  -15.8604   26.5164 C   0  0  0  0  0  0  0  0  0  0  0  0
    6.3052  -16.0996   25.9233 C   0  0  0  0  0  0  0  0  0  0  0  0
    5.6927  -14.9383   25.6811 N   0  0  0  0  0  0  0  0  0  0  0  0
    6.4841  -13.9411   26.0934 C   0  0  0  0  0  0  0  0  0  0  0  0
    6.3064  -12.5773   26.0852 C   0  0  0  0  0  0  0  0  0  0  0  0
    7.2468  -11.7059   26.5859 C   0  0  0  0  0  0  0  0  0  0  0  0
    8.3978  -12.2588   27.1073 C   0  0  0  0  0  0  0  0  0  0  0  0
    8.5688  -13.6164   27.1118 C   0  0  0  0  0  0  0  0  0  0  0  0
    7.6423  -14.5020   26.6161 C   0  0  0  0  0  0  0  0  0  0  0  0
   10.6692  -17.9487   26.2267 C   0  0  0  0  0  0  0  0  0  0  0  0
   11.0832  -18.7174   25.2975 O   0  0  0  0  0  0  0  0  0  0  0  0
   11.1565  -18.2169   27.5216 O   0  0  0  0  0  0  0  0  0  0  0  0
  2  1  1  1
  2  3  1  0
  4  5  1  6
  4  2  1  0
  6  7  2  0
  6  4  1  0
  8  9  1  0
  9 19  2  0
  9 10  1  0
 10 11  2  0
 11 12  1  0
 12 13  1  0
 14 13  1  1
 14 15  1  0
 15  6  1  0
 16 14  1  0
 16 20  1  0
 17 16  2  0
 18 12  2  0
 19 18  1  0
 21 20  1  0
 21 32  1  0
 21 22  1  1
 23 22  1  0
 24 23  2  0
 25 26  1  0
 25 24  1  0
 26 31  2  0
 27 26  1  0
 27 28  2  0
 28 29  1  0
 29 30  2  0
 31 23  1  0
 31 30  1  0
 32 33  2  0
 32 34  1  0
M  END
$$$$
