TYW.pdb
     RDKit          3D

 34 36  0  0  1  0  0  0  0  0999 V2000
    8.8805  -14.8205   16.7131 C   0  0  0  0  0  0  0  0  0  0  0  0
    8.6712  -14.9992   18.1814 C   0  0  1  0  0  0  0  0  0  0  0  0
    9.6796  -14.4380   18.9530 O   0  0  0  0  0  0  0  0  0  0  0  0
    7.3187  -14.4656   18.6357 C   0  0  2  0  0  0  0  0  0  0  0  0
    7.1239  -13.1001   18.2826 N   0  0  0  0  0  0  0  0  0  0  0  0
    7.1842  -14.7581   20.0690 C   0  0  0  0  0  0  0  0  0  0  0  0
    7.5901  -13.8349   20.8559 O   0  0  0  0  0  0  0  0  0  0  0  0
    2.8547  -20.0278   18.5685 O   0  0  0  0  0  0  0  0  0  0  0  0
    3.5532  -19.3189   19.5508 C   0  0  0  0  0  0  0  0  0  0  0  0
    4.6566  -19.8448   20.1832 C   0  0  0  0  0  0  0  0  0  0  0  0
    5.3452  -19.1210   21.1655 C   0  0  0  0  0  0  0  0  0  0  0  0
    4.9175  -17.8617   21.5103 C   0  0  0  0  0  0  0  0  0  0  0  0
    5.6044  -17.0702   22.5283 C   0  0  0  0  0  0  0  0  0  0  0  0
    6.7241  -16.2106   21.9953 C   0  0  2  0  0  0  0  0  0  0  0  0
    6.6535  -15.9546   20.6041 N   0  0  0  0  0  0  0  0  0  0  0  0
    8.0713  -16.7637   22.4022 C   0  0  0  0  0  0  0  0  0  0  0  0
    8.9570  -16.8743   21.5113 O   0  0  0  0  0  0  0  0  0  0  0  0
    3.8129  -17.3559   20.8659 C   0  0  0  0  0  0  0  0  0  0  0  0
    3.1314  -18.0667   19.8966 C   0  0  0  0  0  0  0  0  0  0  0  0
    8.3302  -17.1456   23.7405 N   0  0  0  0  0  0  0  0  0  0  0  0
    9.4569  -16.5115   24.4349 C   0  0  1  0  0  0  0  0  0  0  0  0
    9.3062  -15.0356   24.4469 C   0  0  0  0  0  0  0  0  0  0  0  0
    8.2104  -14.5895   25.3059 C   0  0  0  0  0  0  0  0  0  0  0  0
    7.1056  -15.3559   25.6861 C   0  0  0  0  0  0  0  0  0  0  0  0
    6.2851  -14.6181   26.4376 N   0  0  0  0  0  0  0  0  0  0  0  0
    6.8077  -13.3932   26.5687 C   0  0  0  0  0  0  0  0  0  0  0  0
    6.3654  -12.2849   27.2527 C   0  0  0  0  0  0  0  0  0  0  0  0
    7.0723  -11.1044   27.2843 C   0  0  0  0  0  0  0  0  0  0  0  0
    8.2647  -11.0700   26.5919 C   0  0  0  0  0  0  0  0  0  0  0  0
    8.6988  -12.1758   25.9128 C   0  0  0  0  0  0  0  0  0  0  0  0
    8.0072  -13.3624   25.8689 C   0  0  0  0  0  0  0  0  0  0  0  0
    9.5904  -17.1368   25.7435 C   0  0  0  0  0  0  0  0  0  0  0  0
   10.5396  -16.9253   26.5681 O   0  0  0  0  0  0  0  0  0  0  0  0
    8.6013  -18.0535   26.1529 O   0  0  0  0  0  0  0  0  0  0  0  0
  2  1  1  6
  2  3  1  0
  4  5  1  1
  4  2  1  0
  6  7  2  0
  6  4  1  0
  8  9  1  0
  9 19  2  0
  9 10  1  0
 10 11  2  0
 11 12  1  0
 12 13  1  0
 14 13  1  6
 14 15  1  0
 15  6  1  0
 16 14  1  0
 16 20  1  0
 17 16  2  0
 18 12  2  0
 19 18  1  0
 21 20  1  0
 21 32  1  0
 21 22  1  1
 23 22  1  0
 24 23  2  0
 25 26  1  0
 25 24  1  0
 26 31  2  0
 27 26  1  0
 27 28  2  0
 28 29  1  0
 29 30  2  0
 31 23  1  0
 31 30  1  0
 32 33  2  0
 32 34  1  0
M  END
$$$$
