YGA.pdb
     RDKit          3D

 22 22  0  0  1  0  0  0  0  0999 V2000
    6.4341  -11.9408   27.7870 O   0  0  0  0  0  0  0  0  0  0  0  0
    6.6661  -12.5003   26.5249 C   0  0  0  0  0  0  0  0  0  0  0  0
    6.0325  -13.6492   26.1412 C   0  0  0  0  0  0  0  0  0  0  0  0
    6.2920  -14.1762   24.8708 C   0  0  0  0  0  0  0  0  0  0  0  0
    7.1684  -13.5577   24.0123 C   0  0  0  0  0  0  0  0  0  0  0  0
    7.4489  -14.1033   22.6735 C   0  0  0  0  0  0  0  0  0  0  0  0
    7.8232  -15.5649   22.7386 C   0  0  2  0  0  0  0  0  0  0  0  0
    7.1061  -16.2042   23.8058 N   0  0  0  0  0  0  0  0  0  0  0  0
    9.3047  -15.6564   22.9403 C   0  0  0  0  0  0  0  0  0  0  0  0
   10.0853  -15.1180   22.1156 O   0  0  0  0  0  0  0  0  0  0  0  0
    7.7939  -12.4052   24.4171 C   0  0  0  0  0  0  0  0  0  0  0  0
    7.5579  -11.8533   25.6765 C   0  0  0  0  0  0  0  0  0  0  0  0
    9.8775  -16.3397   24.0465 N   0  0  0  0  0  0  0  0  0  0  0  0
   11.3080  -16.4706   24.2335 C   0  0  0  0  0  0  0  0  0  0  0  0
   11.6616  -16.0615   25.5986 C   0  0  0  0  0  0  0  0  0  0  0  0
   12.7904  -16.3105   26.0652 O   0  0  0  0  0  0  0  0  0  0  0  0
   10.5013  -13.7498   28.2599 C   0  0  0  0  0  0  0  0  0  0  0  0
   11.1007  -15.0796   27.8236 C   0  0  2  0  0  0  0  0  0  0  0  0
   10.7472  -15.3683   26.4503 N   0  0  0  0  0  0  0  0  0  0  0  0
   10.5710  -16.1539   28.7018 C   0  0  0  0  0  0  0  0  0  0  0  0
   10.8562  -16.1018   29.9243 O   0  0  0  0  0  0  0  0  0  0  0  0
    9.7926  -17.1742   28.1944 O   0  0  0  0  0  0  0  0  0  0  0  0
  2  1  1  0
  3  2  2  0
  4  3  1  0
  5  4  2  0
  5 11  1  0
  6  7  1  0
  6  5  1  0
  7  8  1  1
  7  9  1  0
  9 13  1  0
  9 10  2  0
 11 12  2  0
 12  2  1  0
 13 14  1  0
 14 15  1  0
 15 19  1  0
 15 16  2  0
 18 20  1  0
 18 17  1  1
 19 18  1  0
 20 22  1  0
 21 20  2  0
M  END
$$$$
