YGA.pdb
     RDKit          3D

 22 22  0  0  1  0  0  0  0  0999 V2000
    6.4480  -11.4517   28.8645 O   0  0  0  0  0  0  0  0  0  0  0  0
    6.7085  -12.2025   27.7119 C   0  0  0  0  0  0  0  0  0  0  0  0
    7.9773  -12.3020   27.2133 C   0  0  0  0  0  0  0  0  0  0  0  0
    8.1957  -13.0625   26.0585 C   0  0  0  0  0  0  0  0  0  0  0  0
    7.1586  -13.7044   25.4260 C   0  0  0  0  0  0  0  0  0  0  0  0
    7.3767  -14.5069   24.2107 C   0  0  0  0  0  0  0  0  0  0  0  0
    7.2022  -15.9822   24.4828 C   0  0  2  0  0  0  0  0  0  0  0  0
    8.2956  -16.4631   25.2797 N   0  0  0  0  0  0  0  0  0  0  0  0
    7.1289  -16.6918   23.1656 C   0  0  0  0  0  0  0  0  0  0  0  0
    8.0973  -17.3901   22.7736 O   0  0  0  0  0  0  0  0  0  0  0  0
    5.8924  -13.5914   25.9431 C   0  0  0  0  0  0  0  0  0  0  0  0
    5.6402  -12.8415   27.0922 C   0  0  0  0  0  0  0  0  0  0  0  0
    5.9881  -16.6078   22.3229 N   0  0  0  0  0  0  0  0  0  0  0  0
    5.8958  -17.3019   21.0547 C   0  0  0  0  0  0  0  0  0  0  0  0
    6.7114  -16.6021   20.0543 C   0  0  0  0  0  0  0  0  0  0  0  0
    6.8377  -17.0612   18.9022 O   0  0  0  0  0  0  0  0  0  0  0  0
    7.8340  -13.1209   19.5301 C   0  0  0  0  0  0  0  0  0  0  0  0
    8.0032  -14.6128   19.2778 C   0  0  2  0  0  0  0  0  0  0  0  0
    7.3921  -15.3791   20.3424 N   0  0  0  0  0  0  0  0  0  0  0  0
    9.4538  -14.9262   19.2193 C   0  0  0  0  0  0  0  0  0  0  0  0
    9.9357  -15.6325   20.1399 O   0  0  0  0  0  0  0  0  0  0  0  0
   10.2460  -14.4588   18.1905 O   0  0  0  0  0  0  0  0  0  0  0  0
  2  1  1  0
  3  2  2  0
  4  3  1  0
  5  4  2  0
  5 11  1  0
  6  7  1  0
  6  5  1  0
  7  8  1  1
  7  9  1  0
  9 13  1  0
  9 10  2  0
 11 12  2  0
 12  2  1  0
 13 14  1  0
 14 15  1  0
 15 19  1  0
 15 16  2  0
 18 20  1  0
 18 17  1  1
 19 18  1  0
 20 22  1  0
 21 20  2  0
M  END
$$$$
