YGA.pdb
     RDKit          3D

 22 22  0  0  1  0  0  0  0  0999 V2000
    7.0988  -12.6750   27.7543 O   0  0  0  0  0  0  0  0  0  0  0  0
    7.2123  -13.2047   26.4634 C   0  0  0  0  0  0  0  0  0  0  0  0
    6.4054  -14.2291   26.0536 C   0  0  0  0  0  0  0  0  0  0  0  0
    6.5508  -14.7304   24.7548 C   0  0  0  0  0  0  0  0  0  0  0  0
    7.4868  -14.2094   23.8946 C   0  0  0  0  0  0  0  0  0  0  0  0
    7.6484  -14.7290   22.5262 C   0  0  0  0  0  0  0  0  0  0  0  0
    7.5849  -16.2376   22.4957 C   0  0  2  0  0  0  0  0  0  0  0  0
    6.4815  -16.6947   23.2928 N   0  0  0  0  0  0  0  0  0  0  0  0
    8.8891  -16.7677   23.0076 C   0  0  0  0  0  0  0  0  0  0  0  0
    9.3832  -17.8095   22.5077 O   0  0  0  0  0  0  0  0  0  0  0  0
    8.2869  -13.1811   24.3260 C   0  0  0  0  0  0  0  0  0  0  0  0
    8.1681  -12.6582   25.6140 C   0  0  0  0  0  0  0  0  0  0  0  0
    9.6065  -16.1305   24.0554 N   0  0  0  0  0  0  0  0  0  0  0  0
   11.0463  -16.2187   24.1880 C   0  0  0  0  0  0  0  0  0  0  0  0
   11.4525  -15.6617   25.4844 C   0  0  0  0  0  0  0  0  0  0  0  0
   12.6544  -15.6265   25.8133 O   0  0  0  0  0  0  0  0  0  0  0  0
   10.2122  -13.5145   28.2179 C   0  0  0  0  0  0  0  0  0  0  0  0
   10.9284  -14.7770   27.7585 C   0  0  2  0  0  0  0  0  0  0  0  0
   10.5088  -15.1395   26.4219 N   0  0  0  0  0  0  0  0  0  0  0  0
   10.5954  -15.8824   28.6929 C   0  0  0  0  0  0  0  0  0  0  0  0
    9.9566  -16.8621   28.2337 O   0  0  0  0  0  0  0  0  0  0  0  0
   10.9736  -15.8366   30.0193 O   0  0  0  0  0  0  0  0  0  0  0  0
  2  1  1  0
  3  2  2  0
  4  3  1  0
  5  4  2  0
  5 11  1  0
  6  7  1  0
  6  5  1  0
  7  8  1  1
  7  9  1  0
  9 13  1  0
  9 10  2  0
 11 12  2  0
 12  2  1  0
 13 14  1  0
 14 15  1  0
 15 19  1  0
 15 16  2  0
 18 20  1  0
 18 17  1  1
 19 18  1  0
 20 22  1  0
 21 20  2  0
M  END
$$$$
