YGA.pdb
     RDKit          3D

 22 22  0  0  1  0  0  0  0  0999 V2000
    8.6933  -11.8493   18.3143 O   0  0  0  0  0  0  0  0  0  0  0  0
    8.2439  -12.6840   19.3445 C   0  0  0  0  0  0  0  0  0  0  0  0
    7.4268  -13.7469   19.0782 C   0  0  0  0  0  0  0  0  0  0  0  0
    6.9994  -14.5571   20.1366 C   0  0  0  0  0  0  0  0  0  0  0  0
    7.3883  -14.2988   21.4287 C   0  0  0  0  0  0  0  0  0  0  0  0
    6.9449  -15.1445   22.5498 C   0  0  0  0  0  0  0  0  0  0  0  0
    8.0161  -16.1269   22.9597 C   0  0  2  0  0  0  0  0  0  0  0  0
    8.4448  -16.8845   21.8177 N   0  0  0  0  0  0  0  0  0  0  0  0
    7.4497  -17.0136   24.0259 C   0  0  0  0  0  0  0  0  0  0  0  0
    7.0191  -18.1564   23.7292 O   0  0  0  0  0  0  0  0  0  0  0  0
    8.2090  -13.2266   21.6744 C   0  0  0  0  0  0  0  0  0  0  0  0
    8.6530  -12.3991   20.6427 C   0  0  0  0  0  0  0  0  0  0  0  0
    7.3766  -16.6102   25.3863 N   0  0  0  0  0  0  0  0  0  0  0  0
    6.8237  -17.4530   26.4267 C   0  0  0  0  0  0  0  0  0  0  0  0
    7.8658  -18.3581   26.9274 C   0  0  0  0  0  0  0  0  0  0  0  0
    7.5734  -19.3172   27.6682 O   0  0  0  0  0  0  0  0  0  0  0  0
   11.4959  -19.0606   26.2264 C   0  0  0  0  0  0  0  0  0  0  0  0
   10.2316  -19.1399   27.0710 C   0  0  2  0  0  0  0  0  0  0  0  0
    9.2463  -18.1913   26.5983 N   0  0  0  0  0  0  0  0  0  0  0  0
   10.5778  -18.8249   28.4806 C   0  0  0  0  0  0  0  0  0  0  0  0
   10.1066  -17.7705   28.9755 O   0  0  0  0  0  0  0  0  0  0  0  0
   11.3884  -19.6600   29.2221 O   0  0  0  0  0  0  0  0  0  0  0  0
  2  1  1  0
  3  2  2  0
  4  3  1  0
  5  4  2  0
  5 11  1  0
  6  7  1  0
  6  5  1  0
  7  8  1  6
  7  9  1  0
  9 13  1  0
  9 10  2  0
 11 12  2  0
 12  2  1  0
 13 14  1  0
 14 15  1  0
 15 19  1  0
 15 16  2  0
 18 20  1  0
 18 17  1  6
 19 18  1  0
 20 22  1  0
 21 20  2  0
M  END
$$$$
