YGA.pdb
     RDKit          3D

 22 22  0  0  1  0  0  0  0  0999 V2000
    5.2646  -11.1965   27.3238 O   0  0  0  0  0  0  0  0  0  0  0  0
    6.1429  -11.9904   26.5766 C   0  0  0  0  0  0  0  0  0  0  0  0
    6.1702  -13.3474   26.7387 C   0  0  0  0  0  0  0  0  0  0  0  0
    7.0631  -14.1053   25.9723 C   0  0  0  0  0  0  0  0  0  0  0  0
    7.9052  -13.5064   25.0668 C   0  0  0  0  0  0  0  0  0  0  0  0
    8.8485  -14.2938   24.2552 C   0  0  0  0  0  0  0  0  0  0  0  0
    8.1871  -14.8410   23.0127 C   0  0  2  0  0  0  0  0  0  0  0  0
    7.1799  -15.7969   23.3779 N   0  0  0  0  0  0  0  0  0  0  0  0
    9.2483  -15.4612   22.1564 C   0  0  0  0  0  0  0  0  0  0  0  0
   10.1420  -14.7416   21.6440 O   0  0  0  0  0  0  0  0  0  0  0  0
    7.8618  -12.1426   24.9195 C   0  0  0  0  0  0  0  0  0  0  0  0
    6.9838  -11.3578   25.6676 C   0  0  0  0  0  0  0  0  0  0  0  0
    9.2889  -16.8569   21.8932 N   0  0  0  0  0  0  0  0  0  0  0  0
   10.4411  -17.5127   21.3095 C   0  0  0  0  0  0  0  0  0  0  0  0
   11.4207  -17.8079   22.3627 C   0  0  0  0  0  0  0  0  0  0  0  0
   12.5489  -18.2538   22.0754 O   0  0  0  0  0  0  0  0  0  0  0  0
   11.9353  -17.1724   26.0143 C   0  0  0  0  0  0  0  0  0  0  0  0
   12.0885  -18.0189   24.7582 C   0  0  2  0  0  0  0  0  0  0  0  0
   11.1386  -17.6037   23.7485 N   0  0  0  0  0  0  0  0  0  0  0  0
   11.8416  -19.4413   25.1072 C   0  0  0  0  0  0  0  0  0  0  0  0
   12.6328  -19.9898   25.9145 O   0  0  0  0  0  0  0  0  0  0  0  0
   10.7808  -20.1376   24.5646 O   0  0  0  0  0  0  0  0  0  0  0  0
  2  1  1  0
  3  2  2  0
  4  3  1  0
  5  4  2  0
  5 11  1  0
  6  7  1  0
  6  5  1  0
  7  8  1  1
  7  9  1  0
  9 13  1  0
  9 10  2  0
 11 12  2  0
 12  2  1  0
 13 14  1  0
 14 15  1  0
 15 19  1  0
 15 16  2  0
 18 20  1  0
 18 17  1  1
 19 18  1  0
 20 22  1  0
 21 20  2  0
M  END
$$$$
