YGA.pdb
     RDKit          3D

 22 22  0  0  1  0  0  0  0  0999 V2000
   11.5010  -14.3857   29.5625 O   0  0  0  0  0  0  0  0  0  0  0  0
   10.4436  -14.5531   28.6604 C   0  0  0  0  0  0  0  0  0  0  0  0
   10.0375  -13.5230   27.8589 C   0  0  0  0  0  0  0  0  0  0  0  0
    8.9763  -13.7314   26.9703 C   0  0  0  0  0  0  0  0  0  0  0  0
    8.3435  -14.9486   26.8950 C   0  0  0  0  0  0  0  0  0  0  0  0
    7.2261  -15.1790   25.9639 C   0  0  0  0  0  0  0  0  0  0  0  0
    7.0314  -16.6507   25.6861 C   0  0  2  0  0  0  0  0  0  0  0  0
    8.2848  -17.3399   25.8118 N   0  0  0  0  0  0  0  0  0  0  0  0
    6.4629  -16.7917   24.3074 C   0  0  0  0  0  0  0  0  0  0  0  0
    5.4373  -16.1429   23.9815 O   0  0  0  0  0  0  0  0  0  0  0  0
    8.7668  -15.9695   27.7086 C   0  0  0  0  0  0  0  0  0  0  0  0
    9.8214  -15.7955   28.6053 C   0  0  0  0  0  0  0  0  0  0  0  0
    7.0452  -17.6451   23.3320 N   0  0  0  0  0  0  0  0  0  0  0  0
    6.4652  -17.8491   22.0203 C   0  0  0  0  0  0  0  0  0  0  0  0
    6.9622  -16.8182   21.1006 C   0  0  0  0  0  0  0  0  0  0  0  0
    6.8331  -16.9497   19.8677 O   0  0  0  0  0  0  0  0  0  0  0  0
    7.6265  -13.2394   21.0721 C   0  0  0  0  0  0  0  0  0  0  0  0
    8.0566  -14.6276   20.6184 C   0  0  2  0  0  0  0  0  0  0  0  0
    7.6090  -15.6301   21.5611 N   0  0  0  0  0  0  0  0  0  0  0  0
    9.5389  -14.6642   20.5316 C   0  0  0  0  0  0  0  0  0  0  0  0
   10.0877  -13.9813   19.6310 O   0  0  0  0  0  0  0  0  0  0  0  0
   10.2886  -15.4213   21.4086 O   0  0  0  0  0  0  0  0  0  0  0  0
  2  1  1  0
  3  2  2  0
  4  3  1  0
  5  4  2  0
  5 11  1  0
  6  7  1  0
  6  5  1  0
  7  8  1  6
  7  9  1  0
  9 13  1  0
  9 10  2  0
 11 12  2  0
 12  2  1  0
 13 14  1  0
 14 15  1  0
 15 19  1  0
 15 16  2  0
 18 20  1  0
 18 17  1  1
 19 18  1  0
 20 22  1  0
 21 20  2  0
M  END
$$$$
