YGA.pdb
     RDKit          3D

 22 22  0  0  1  0  0  0  0  0999 V2000
    6.4851  -10.7235   27.5194 O   0  0  0  0  0  0  0  0  0  0  0  0
    6.7205  -11.8182   26.6790 C   0  0  0  0  0  0  0  0  0  0  0  0
    7.9914  -12.2700   26.4574 C   0  0  0  0  0  0  0  0  0  0  0  0
    8.1841  -13.3675   25.6103 C   0  0  0  0  0  0  0  0  0  0  0  0
    7.1201  -13.9905   25.0043 C   0  0  0  0  0  0  0  0  0  0  0  0
    7.3111  -15.1458   24.1114 C   0  0  0  0  0  0  0  0  0  0  0  0
    8.7480  -15.6107   24.1071 C   0  0  2  0  0  0  0  0  0  0  0  0
    9.6158  -14.5074   23.8047 N   0  0  0  0  0  0  0  0  0  0  0  0
    8.8787  -16.7061   23.0938 C   0  0  0  0  0  0  0  0  0  0  0  0
    8.2962  -17.8045   23.2775 O   0  0  0  0  0  0  0  0  0  0  0  0
    5.8523  -13.5210   25.2403 C   0  0  0  0  0  0  0  0  0  0  0  0
    5.6252  -12.4295   26.0789 C   0  0  0  0  0  0  0  0  0  0  0  0
    9.6486  -16.5540   21.9094 N   0  0  0  0  0  0  0  0  0  0  0  0
    9.8112  -17.6152   20.9368 C   0  0  0  0  0  0  0  0  0  0  0  0
   10.9913  -18.4177   21.2821 C   0  0  0  0  0  0  0  0  0  0  0  0
   11.7283  -18.8818   20.3902 O   0  0  0  0  0  0  0  0  0  0  0  0
   13.6988  -18.0688   22.8413 C   0  0  0  0  0  0  0  0  0  0  0  0
   12.6771  -19.1920   22.9516 C   0  0  2  0  0  0  0  0  0  0  0  0
   11.3520  -18.7046   22.6347 N   0  0  0  0  0  0  0  0  0  0  0  0
   12.6875  -19.7128   24.3426 C   0  0  0  0  0  0  0  0  0  0  0  0
   13.7168  -20.3200   24.7306 O   0  0  0  0  0  0  0  0  0  0  0  0
   11.6054  -19.5368   25.1807 O   0  0  0  0  0  0  0  0  0  0  0  0
  2  1  1  0
  3  2  2  0
  4  3  1  0
  5  4  2  0
  5 11  1  0
  6  7  1  0
  6  5  1  0
  7  8  1  6
  7  9  1  0
  9 13  1  0
  9 10  2  0
 11 12  2  0
 12  2  1  0
 13 14  1  0
 14 15  1  0
 15 19  1  0
 15 16  2  0
 18 20  1  0
 18 17  1  1
 19 18  1  0
 20 22  1  0
 21 20  2  0
M  END
$$$$
