YGA.pdb
     RDKit          3D

 22 22  0  0  1  0  0  0  0  0999 V2000
   11.0279  -14.3605   29.9361 O   0  0  0  0  0  0  0  0  0  0  0  0
   10.3190  -14.4839   28.7352 C   0  0  0  0  0  0  0  0  0  0  0  0
   10.8775  -15.1052   27.6533 C   0  0  0  0  0  0  0  0  0  0  0  0
   10.1353  -15.2080   26.4710 C   0  0  0  0  0  0  0  0  0  0  0  0
    8.8631  -14.6961   26.3860 C   0  0  0  0  0  0  0  0  0  0  0  0
    8.0733  -14.7985   25.1473 C   0  0  0  0  0  0  0  0  0  0  0  0
    7.5065  -16.1865   24.9653 C   0  0  2  0  0  0  0  0  0  0  0  0
    8.5709  -17.1502   24.9581 N   0  0  0  0  0  0  0  0  0  0  0  0
    6.7366  -16.2089   23.6805 C   0  0  0  0  0  0  0  0  0  0  0  0
    5.7178  -15.4855   23.5460 O   0  0  0  0  0  0  0  0  0  0  0  0
    8.3211  -14.0762   27.4838 C   0  0  0  0  0  0  0  0  0  0  0  0
    9.0335  -13.9568   28.6774 C   0  0  0  0  0  0  0  0  0  0  0  0
    7.1163  -17.0296   22.5846 N   0  0  0  0  0  0  0  0  0  0  0  0
    6.3104  -17.1645   21.3883 C   0  0  0  0  0  0  0  0  0  0  0  0
    6.7148  -16.1473   20.4097 C   0  0  0  0  0  0  0  0  0  0  0  0
    6.2364  -16.1461   19.2585 O   0  0  0  0  0  0  0  0  0  0  0  0
    7.7698  -12.7735   20.0663 C   0  0  0  0  0  0  0  0  0  0  0  0
    8.1129  -14.2086   19.6914 C   0  0  2  0  0  0  0  0  0  0  0  0
    7.6614  -15.1223   20.7187 N   0  0  0  0  0  0  0  0  0  0  0  0
    9.5864  -14.3254   19.5455 C   0  0  0  0  0  0  0  0  0  0  0  0
   10.1980  -15.0540   20.3663 O   0  0  0  0  0  0  0  0  0  0  0  0
   10.2615  -13.6577   18.5441 O   0  0  0  0  0  0  0  0  0  0  0  0
  2  1  1  0
  3  2  2  0
  4  3  1  0
  5  4  2  0
  5 11  1  0
  6  7  1  0
  6  5  1  0
  7  8  1  6
  7  9  1  0
  9 13  1  0
  9 10  2  0
 11 12  2  0
 12  2  1  0
 13 14  1  0
 14 15  1  0
 15 19  1  0
 15 16  2  0
 18 20  1  0
 18 17  1  1
 19 18  1  0
 20 22  1  0
 21 20  2  0
M  END
$$$$
