FQC.pdb
     RDKit          3D

 27 27  0  0  1  0  0  0  0  0999 V2000
    6.1503  -17.9428   23.5436 N   0  0  0  0  0  0  0  0  0  0  0  0
    6.7149  -16.6836   23.9933 C   0  0  1  0  0  0  0  0  0  0  0  0
    5.8185  -15.8608   24.8352 C   0  0  0  0  0  0  0  0  0  0  0  0
    6.3280  -14.5242   25.2079 C   0  0  0  0  0  0  0  0  0  0  0  0
    6.9226  -13.6887   24.2855 C   0  0  0  0  0  0  0  0  0  0  0  0
    7.4024  -12.4413   24.6254 C   0  0  0  0  0  0  0  0  0  0  0  0
    7.3045  -11.9725   25.9238 C   0  0  0  0  0  0  0  0  0  0  0  0
    6.7126  -12.7991   26.8514 C   0  0  0  0  0  0  0  0  0  0  0  0
    6.2340  -14.0440   26.5115 C   0  0  0  0  0  0  0  0  0  0  0  0
    8.1001  -16.8659   24.4841 C   0  0  0  0  0  0  0  0  0  0  0  0
    8.4377  -17.7223   25.3247 O   0  0  0  0  0  0  0  0  0  0  0  0
   13.4845  -15.8859   21.1238 N   0  0  0  0  0  0  0  0  0  0  0  0
   13.8971  -16.3214   22.4284 C   0  0  0  0  0  0  0  0  0  0  0  0
   15.1041  -16.6051   22.6016 O   0  0  0  0  0  0  0  0  0  0  0  0
   12.9244  -16.4258   23.5005 C   0  0  0  0  0  0  0  0  0  0  0  0
   11.5135  -16.0632   23.1811 C   0  0  0  0  0  0  0  0  0  0  0  0
   10.5031  -16.2853   24.2455 C   0  0  2  0  0  0  0  0  0  0  0  0
    9.1477  -16.0048   23.9768 N   0  0  0  0  0  0  0  0  0  0  0  0
   11.0431  -15.8828   25.5592 C   0  0  0  0  0  0  0  0  0  0  0  0
   11.9680  -14.9999   25.5335 O   0  0  0  0  0  0  0  0  0  0  0  0
   10.6656  -16.3573   26.8284 N   0  0  0  0  0  0  0  0  0  0  0  0
   11.3687  -15.9687   28.0473 C   0  0  1  0  0  0  0  0  0  0  0  0
   10.7596  -14.8151   28.7644 C   0  0  0  0  0  0  0  0  0  0  0  0
    9.7582  -13.9001   27.5245 S   0  0  0  0  0  0  0  0  0  0  0  0
   11.4499  -17.1620   28.9223 C   0  0  0  0  0  0  0  0  0  0  0  0
   10.9347  -18.2729   28.5857 O   0  0  0  0  0  0  0  0  0  0  0  0
   12.0886  -17.1427   30.1552 O   0  0  0  0  0  0  0  0  0  0  0  0
  2  1  1  1
  2  3  1  0
  4  3  1  0
  5  4  2  0
  6  5  1  0
  7  6  2  0
  7  8  1  0
  8  9  2  0
  9  4  1  0
 10 18  1  0
 10  2  1  0
 11 10  2  0
 13 12  1  0
 14 13  2  0
 15 13  1  0
 17 16  1  6
 16 15  1  0
 17 18  1  0
 19 21  1  0
 19 17  1  0
 20 19  2  0
 22 25  1  0
 22 21  1  0
 22 23  1  1
 24 23  1  0
 25 27  1  0
 26 25  2  0
M  END
$$$$
