FQC.pdb
     RDKit          3D

 27 27  0  0  1  0  0  0  0  0999 V2000
    6.4203  -15.9966   25.8692 N   0  0  0  0  0  0  0  0  0  0  0  0
    7.2543  -15.4069   24.8381 C   0  0  1  0  0  0  0  0  0  0  0  0
    8.0211  -14.2137   25.2596 C   0  0  0  0  0  0  0  0  0  0  0  0
    7.2563  -13.1757   25.9826 C   0  0  0  0  0  0  0  0  0  0  0  0
    6.1782  -12.5342   25.4093 C   0  0  0  0  0  0  0  0  0  0  0  0
    5.4607  -11.5634   26.0760 C   0  0  0  0  0  0  0  0  0  0  0  0
    5.7994  -11.1898   27.3649 C   0  0  0  0  0  0  0  0  0  0  0  0
    6.8737  -11.8244   27.9454 C   0  0  0  0  0  0  0  0  0  0  0  0
    7.5894  -12.7932   27.2794 C   0  0  0  0  0  0  0  0  0  0  0  0
    8.0044  -16.4481   24.0993 C   0  0  0  0  0  0  0  0  0  0  0  0
    8.1292  -17.6270   24.4849 O   0  0  0  0  0  0  0  0  0  0  0  0
   10.0780  -17.2715   18.0013 N   0  0  0  0  0  0  0  0  0  0  0  0
   10.9182  -18.0687   18.8499 C   0  0  0  0  0  0  0  0  0  0  0  0
   11.7116  -18.8719   18.3087 O   0  0  0  0  0  0  0  0  0  0  0  0
   10.8308  -17.9335   20.2923 C   0  0  0  0  0  0  0  0  0  0  0  0
    9.8361  -16.9602   20.8286 C   0  0  0  0  0  0  0  0  0  0  0  0
    9.6474  -16.9314   22.3006 C   0  0  2  0  0  0  0  0  0  0  0  0
    8.6489  -16.1013   22.8500 N   0  0  0  0  0  0  0  0  0  0  0  0
   10.9530  -16.9866   22.9875 C   0  0  0  0  0  0  0  0  0  0  0  0
   11.6015  -15.8855   23.0387 O   0  0  0  0  0  0  0  0  0  0  0  0
   11.5664  -18.1028   23.5845 N   0  0  0  0  0  0  0  0  0  0  0  0
   12.8096  -17.9973   24.3423 C   0  0  1  0  0  0  0  0  0  0  0  0
   12.8257  -18.7848   25.6055 C   0  0  0  0  0  0  0  0  0  0  0  0
   11.4008  -18.1958   26.6054 S   0  0  0  0  0  0  0  0  0  0  0  0
   13.9203  -18.3974   23.4465 C   0  0  0  0  0  0  0  0  0  0  0  0
   13.7142  -18.7493   22.2438 O   0  0  0  0  0  0  0  0  0  0  0  0
   15.2457  -18.4132   23.8604 O   0  0  0  0  0  0  0  0  0  0  0  0
  2  1  1  1
  2  3  1  0
  4  3  1  0
  5  4  2  0
  6  5  1  0
  7  6  2  0
  7  8  1  0
  8  9  2  0
  9  4  1  0
 10 18  1  0
 10  2  1  0
 11 10  2  0
 13 12  1  0
 14 13  2  0
 15 13  1  0
 17 16  1  6
 16 15  1  0
 17 18  1  0
 19 21  1  0
 19 17  1  0
 20 19  2  0
 22 25  1  0
 22 21  1  0
 22 23  1  1
 24 23  1  0
 25 27  1  0
 26 25  2  0
M  END
$$$$
