FQC.pdb
     RDKit          3D

 27 27  0  0  1  0  0  0  0  0999 V2000
    6.5823  -16.1885   25.9924 N   0  0  0  0  0  0  0  0  0  0  0  0
    6.8526  -15.3204   24.8611 C   0  0  1  0  0  0  0  0  0  0  0  0
    7.6281  -14.1010   25.1791 C   0  0  0  0  0  0  0  0  0  0  0  0
    7.0614  -13.2300   26.2304 C   0  0  0  0  0  0  0  0  0  0  0  0
    5.8344  -12.6169   26.0843 C   0  0  0  0  0  0  0  0  0  0  0  0
    5.2995  -11.8013   27.0592 C   0  0  0  0  0  0  0  0  0  0  0  0
    5.9827  -11.5629   28.2390 C   0  0  0  0  0  0  0  0  0  0  0  0
    7.2078  -12.1704   28.3939 C   0  0  0  0  0  0  0  0  0  0  0  0
    7.7411  -12.9843   27.4205 C   0  0  0  0  0  0  0  0  0  0  0  0
    7.3006  -16.1012   23.6854 C   0  0  0  0  0  0  0  0  0  0  0  0
    7.9579  -17.1581   23.7563 O   0  0  0  0  0  0  0  0  0  0  0  0
    8.2281  -12.6671   17.9182 N   0  0  0  0  0  0  0  0  0  0  0  0
    8.4563  -14.0826   17.8405 C   0  0  0  0  0  0  0  0  0  0  0  0
    8.4112  -14.6268   16.7139 O   0  0  0  0  0  0  0  0  0  0  0  0
    8.7265  -14.8419   19.0475 C   0  0  0  0  0  0  0  0  0  0  0  0
    7.7553  -14.7078   20.1713 C   0  0  0  0  0  0  0  0  0  0  0  0
    7.9514  -15.5995   21.3416 C   0  0  2  0  0  0  0  0  0  0  0  0
    6.9735  -15.6272   22.3569 N   0  0  0  0  0  0  0  0  0  0  0  0
    9.3700  -15.6069   21.7505 C   0  0  0  0  0  0  0  0  0  0  0  0
    9.6952  -14.7536   22.6459 O   0  0  0  0  0  0  0  0  0  0  0  0
   10.4013  -16.4339   21.2699 N   0  0  0  0  0  0  0  0  0  0  0  0
   11.6960  -16.5338   21.9368 C   0  0  1  0  0  0  0  0  0  0  0  0
   11.7424  -17.5350   23.0374 C   0  0  0  0  0  0  0  0  0  0  0  0
   11.3080  -16.6351   24.5798 S   0  0  0  0  0  0  0  0  0  0  0  0
   12.7160  -16.8260   20.9023 C   0  0  0  0  0  0  0  0  0  0  0  0
   12.3928  -17.1064   19.7066 O   0  0  0  0  0  0  0  0  0  0  0  0
   14.0783  -16.8124   21.1710 O   0  0  0  0  0  0  0  0  0  0  0  0
  2  1  1  1
  2  3  1  0
  4  3  1  0
  5  4  2  0
  6  5  1  0
  7  6  2  0
  7  8  1  0
  8  9  2  0
  9  4  1  0
 10 18  1  0
 10  2  1  0
 11 10  2  0
 13 12  1  0
 14 13  2  0
 15 13  1  0
 17 16  1  1
 16 15  1  0
 17 18  1  0
 19 21  1  0
 19 17  1  0
 20 19  2  0
 22 25  1  0
 22 21  1  0
 22 23  1  1
 24 23  1  0
 25 27  1  0
 26 25  2  0
M  END
$$$$
