FQC.pdb
     RDKit          3D

 27 27  0  0  1  0  0  0  0  0999 V2000
    5.7845  -17.4139   25.2972 N   0  0  0  0  0  0  0  0  0  0  0  0
    6.4296  -16.1549   24.9726 C   0  0  1  0  0  0  0  0  0  0  0  0
    7.0311  -15.4449   26.1231 C   0  0  0  0  0  0  0  0  0  0  0  0
    6.7578  -13.9944   26.2025 C   0  0  0  0  0  0  0  0  0  0  0  0
    7.3918  -13.0881   25.3782 C   0  0  0  0  0  0  0  0  0  0  0  0
    7.1442  -11.7333   25.4472 C   0  0  0  0  0  0  0  0  0  0  0  0
    6.2368  -11.2229   26.3591 C   0  0  0  0  0  0  0  0  0  0  0  0
    5.5991  -12.1194   27.1858 C   0  0  0  0  0  0  0  0  0  0  0  0
    5.8468  -13.4716   27.1164 C   0  0  0  0  0  0  0  0  0  0  0  0
    7.2717  -16.2844   23.7616 C   0  0  0  0  0  0  0  0  0  0  0  0
    7.9695  -17.2832   23.4979 O   0  0  0  0  0  0  0  0  0  0  0  0
    7.3088  -12.8076   18.1914 N   0  0  0  0  0  0  0  0  0  0  0  0
    8.3918  -13.7490   18.1410 C   0  0  0  0  0  0  0  0  0  0  0  0
    9.0097  -13.8806   17.0601 O   0  0  0  0  0  0  0  0  0  0  0  0
    8.7408  -14.5184   19.3211 C   0  0  0  0  0  0  0  0  0  0  0  0
    7.8618  -14.3722   20.5171 C   0  0  0  0  0  0  0  0  0  0  0  0
    8.1410  -15.2624   21.6715 C   0  0  2  0  0  0  0  0  0  0  0  0
    7.3108  -15.1946   22.8091 N   0  0  0  0  0  0  0  0  0  0  0  0
    9.5965  -15.3844   21.8866 C   0  0  0  0  0  0  0  0  0  0  0  0
   10.1619  -14.3831   22.4465 O   0  0  0  0  0  0  0  0  0  0  0  0
   10.4307  -16.4643   21.5453 N   0  0  0  0  0  0  0  0  0  0  0  0
   11.7464  -16.6546   22.1485 C   0  0  1  0  0  0  0  0  0  0  0  0
   11.8558  -17.8631   23.0108 C   0  0  0  0  0  0  0  0  0  0  0  0
   11.7932  -17.2706   24.7493 S   0  0  0  0  0  0  0  0  0  0  0  0
   12.7453  -16.6841   21.0543 C   0  0  0  0  0  0  0  0  0  0  0  0
   13.9931  -16.6550   21.2885 O   0  0  0  0  0  0  0  0  0  0  0  0
   12.3848  -16.7449   19.7146 O   0  0  0  0  0  0  0  0  0  0  0  0
  2  1  1  1
  2  3  1  0
  4  3  1  0
  5  4  2  0
  6  5  1  0
  7  6  2  0
  7  8  1  0
  8  9  2  0
  9  4  1  0
 10 18  1  0
 10  2  1  0
 11 10  2  0
 13 12  1  0
 14 13  2  0
 15 13  1  0
 17 16  1  1
 16 15  1  0
 17 18  1  0
 19 21  1  0
 19 17  1  0
 20 19  2  0
 22 25  1  0
 22 21  1  0
 22 23  1  6
 24 23  1  0
 25 27  1  0
 26 25  2  0
M  END
$$$$
