FQC.pdb
     RDKit          3D

 27 27  0  0  1  0  0  0  0  0999 V2000
    6.5061  -16.4145   22.1824 N   0  0  0  0  0  0  0  0  0  0  0  0
    7.8739  -16.0167   22.4607 C   0  0  1  0  0  0  0  0  0  0  0  0
    8.1456  -14.5690   22.3201 C   0  0  0  0  0  0  0  0  0  0  0  0
    7.9948  -14.0119   20.9593 C   0  0  0  0  0  0  0  0  0  0  0  0
    6.8315  -13.3934   20.5507 C   0  0  0  0  0  0  0  0  0  0  0  0
    6.6819  -12.8730   19.2825 C   0  0  0  0  0  0  0  0  0  0  0  0
    7.7079  -12.9520   18.3570 C   0  0  0  0  0  0  0  0  0  0  0  0
    8.8727  -13.5673   18.7554 C   0  0  0  0  0  0  0  0  0  0  0  0
    9.0213  -14.0866   20.0214 C   0  0  0  0  0  0  0  0  0  0  0  0
    8.3783  -16.6678   23.6912 C   0  0  0  0  0  0  0  0  0  0  0  0
    7.7115  -16.8014   24.7360 O   0  0  0  0  0  0  0  0  0  0  0  0
   13.6562  -20.3432   24.9848 N   0  0  0  0  0  0  0  0  0  0  0  0
   13.1773  -19.8063   26.2275 C   0  0  0  0  0  0  0  0  0  0  0  0
   13.7305  -20.1831   27.2855 O   0  0  0  0  0  0  0  0  0  0  0  0
   12.0793  -18.8573   26.2335 C   0  0  0  0  0  0  0  0  0  0  0  0
   11.4969  -18.4773   24.9141 C   0  0  0  0  0  0  0  0  0  0  0  0
   10.3465  -17.5396   24.9301 C   0  0  2  0  0  0  0  0  0  0  0  0
    9.7301  -17.1861   23.7123 N   0  0  0  0  0  0  0  0  0  0  0  0
   10.5664  -16.4728   25.9266 C   0  0  0  0  0  0  0  0  0  0  0  0
   11.4504  -15.6004   25.6215 O   0  0  0  0  0  0  0  0  0  0  0  0
    9.9252  -16.3069   27.1676 N   0  0  0  0  0  0  0  0  0  0  0  0
   10.2897  -15.2426   28.0978 C   0  0  1  0  0  0  0  0  0  0  0  0
    9.1809  -14.3021   28.4174 C   0  0  0  0  0  0  0  0  0  0  0  0
    8.4852  -13.7501   26.8085 S   0  0  0  0  0  0  0  0  0  0  0  0
   10.8244  -15.8784   29.3250 C   0  0  0  0  0  0  0  0  0  0  0  0
   10.8501  -17.1402   29.4663 O   0  0  0  0  0  0  0  0  0  0  0  0
   11.3273  -15.1424   30.3897 O   0  0  0  0  0  0  0  0  0  0  0  0
  2  1  1  1
  2  3  1  0
  4  3  1  0
  5  4  2  0
  6  5  1  0
  7  6  2  0
  7  8  1  0
  8  9  2  0
  9  4  1  0
 10 18  1  0
 10  2  1  0
 11 10  2  0
 13 12  1  0
 14 13  2  0
 15 13  1  0
 17 16  1  6
 16 15  1  0
 17 18  1  0
 19 21  1  0
 19 17  1  0
 20 19  2  0
 22 25  1  0
 22 21  1  0
 22 23  1  1
 24 23  1  0
 25 27  1  0
 26 25  2  0
M  END
$$$$
