FQC.pdb
     RDKit          3D

 27 27  0  0  1  0  0  0  0  0999 V2000
    6.1109  -16.3863   25.6059 N   0  0  0  0  0  0  0  0  0  0  0  0
    7.1918  -15.8172   24.8223 C   0  0  1  0  0  0  0  0  0  0  0  0
    7.9096  -14.6957   25.4677 C   0  0  0  0  0  0  0  0  0  0  0  0
    7.1202  -13.4663   25.6919 C   0  0  0  0  0  0  0  0  0  0  0  0
    7.0665  -12.4549   24.7555 C   0  0  0  0  0  0  0  0  0  0  0  0
    6.3342  -11.3040   24.9576 C   0  0  0  0  0  0  0  0  0  0  0  0
    5.6144  -11.1163   26.1247 C   0  0  0  0  0  0  0  0  0  0  0  0
    5.6618  -12.1200   27.0651 C   0  0  0  0  0  0  0  0  0  0  0  0
    6.3929  -13.2684   26.8627 C   0  0  0  0  0  0  0  0  0  0  0  0
    8.0295  -16.8791   24.2196 C   0  0  0  0  0  0  0  0  0  0  0  0
    8.2050  -18.0043   24.7268 O   0  0  0  0  0  0  0  0  0  0  0  0
   10.8521  -17.5913   18.3512 N   0  0  0  0  0  0  0  0  0  0  0  0
   11.5925  -18.3894   19.2875 C   0  0  0  0  0  0  0  0  0  0  0  0
   12.4997  -19.1297   18.8444 O   0  0  0  0  0  0  0  0  0  0  0  0
   11.2786  -18.3265   20.7031 C   0  0  0  0  0  0  0  0  0  0  0  0
   10.2186  -17.3664   21.1262 C   0  0  0  0  0  0  0  0  0  0  0  0
    9.7732  -17.4346   22.5405 C   0  0  2  0  0  0  0  0  0  0  0  0
    8.7040  -16.6193   22.9650 N   0  0  0  0  0  0  0  0  0  0  0  0
   10.9360  -17.5702   23.4398 C   0  0  0  0  0  0  0  0  0  0  0  0
   11.7042  -16.5503   23.5134 O   0  0  0  0  0  0  0  0  0  0  0  0
   11.2992  -18.6849   24.2171 N   0  0  0  0  0  0  0  0  0  0  0  0
   12.4878  -18.6910   25.0646 C   0  0  1  0  0  0  0  0  0  0  0  0
   12.2047  -18.8682   26.5153 C   0  0  0  0  0  0  0  0  0  0  0  0
   10.4515  -18.3785   26.7682 S   0  0  0  0  0  0  0  0  0  0  0  0
   13.3959  -19.7487   24.5621 C   0  0  0  0  0  0  0  0  0  0  0  0
   13.0623  -20.5168   23.6073 O   0  0  0  0  0  0  0  0  0  0  0  0
   14.6584  -19.9664   25.0977 O   0  0  0  0  0  0  0  0  0  0  0  0
  2  1  1  1
  2  3  1  0
  4  3  1  0
  5  4  2  0
  6  5  1  0
  7  6  2  0
  7  8  1  0
  8  9  2  0
  9  4  1  0
 10 18  1  0
 10  2  1  0
 11 10  2  0
 13 12  1  0
 14 13  2  0
 15 13  1  0
 17 16  1  6
 16 15  1  0
 17 18  1  0
 19 21  1  0
 19 17  1  0
 20 19  2  0
 22 25  1  0
 22 21  1  0
 22 23  1  1
 24 23  1  0
 25 27  1  0
 26 25  2  0
M  END
$$$$
