FQC.pdb
     RDKit          3D

 27 27  0  0  1  0  0  0  0  0999 V2000
    6.0640  -17.8339   22.9411 N   0  0  0  0  0  0  0  0  0  0  0  0
    6.7132  -16.6661   23.5076 C   0  0  1  0  0  0  0  0  0  0  0  0
    5.9413  -15.9698   24.5606 C   0  0  0  0  0  0  0  0  0  0  0  0
    6.5569  -14.7431   25.1094 C   0  0  0  0  0  0  0  0  0  0  0  0
    6.9990  -14.6717   26.4141 C   0  0  0  0  0  0  0  0  0  0  0  0
    7.5725  -13.5306   26.9345 C   0  0  0  0  0  0  0  0  0  0  0  0
    7.7291  -12.3966   26.1568 C   0  0  0  0  0  0  0  0  0  0  0  0
    7.2910  -12.4582   24.8536 C   0  0  0  0  0  0  0  0  0  0  0  0
    6.7187  -13.5974   24.3349 C   0  0  0  0  0  0  0  0  0  0  0  0
    8.1381  -16.9396   23.8037 C   0  0  0  0  0  0  0  0  0  0  0  0
    8.5335  -17.8450   24.5640 O   0  0  0  0  0  0  0  0  0  0  0  0
   13.9106  -14.7389   20.9635 N   0  0  0  0  0  0  0  0  0  0  0  0
   12.5281  -14.3816   20.8122 C   0  0  0  0  0  0  0  0  0  0  0  0
   12.1745  -13.8291   19.7459 O   0  0  0  0  0  0  0  0  0  0  0  0
   11.5852  -14.6595   21.8800 C   0  0  0  0  0  0  0  0  0  0  0  0
   11.5217  -16.0600   22.3886 C   0  0  0  0  0  0  0  0  0  0  0  0
   10.5238  -16.3473   23.4493 C   0  0  2  0  0  0  0  0  0  0  0  0
    9.1576  -16.1151   23.1895 N   0  0  0  0  0  0  0  0  0  0  0  0
   11.0508  -15.9541   24.7711 C   0  0  0  0  0  0  0  0  0  0  0  0
   11.9777  -15.0730   24.7607 O   0  0  0  0  0  0  0  0  0  0  0  0
   10.6590  -16.4357   26.0333 N   0  0  0  0  0  0  0  0  0  0  0  0
   11.2168  -15.9108   27.2760 C   0  0  1  0  0  0  0  0  0  0  0  0
   10.4353  -14.7940   27.8745 C   0  0  0  0  0  0  0  0  0  0  0  0
   11.2458  -14.3886   29.4733 S   0  0  0  0  0  0  0  0  0  0  0  0
   11.3497  -17.0414   28.2248 C   0  0  0  0  0  0  0  0  0  0  0  0
   10.5266  -18.0085   28.2305 O   0  0  0  0  0  0  0  0  0  0  0  0
   12.3732  -17.1157   29.1603 O   0  0  0  0  0  0  0  0  0  0  0  0
  2  1  1  1
  2  3  1  0
  4  3  1  0
  5  4  2  0
  6  5  1  0
  7  6  2  0
  7  8  1  0
  8  9  2  0
  9  4  1  0
 10 18  1  0
 10  2  1  0
 11 10  2  0
 13 12  1  0
 14 13  2  0
 15 13  1  0
 17 16  1  6
 16 15  1  0
 17 18  1  0
 19 21  1  0
 19 17  1  0
 20 19  2  0
 22 25  1  0
 22 21  1  0
 22 23  1  1
 24 23  1  0
 25 27  1  0
 26 25  2  0
M  END
$$$$
