FQC.pdb
     RDKit          3D

 27 27  0  0  1  0  0  0  0  0999 V2000
    5.8660  -17.9571   24.3669 N   0  0  0  0  0  0  0  0  0  0  0  0
    6.6630  -16.8021   24.7374 C   0  0  1  0  0  0  0  0  0  0  0  0
    6.2544  -16.1367   25.9942 C   0  0  0  0  0  0  0  0  0  0  0  0
    6.7262  -14.7474   26.1733 C   0  0  0  0  0  0  0  0  0  0  0  0
    7.8841  -14.4552   26.8638 C   0  0  0  0  0  0  0  0  0  0  0  0
    8.3301  -13.1618   27.0371 C   0  0  0  0  0  0  0  0  0  0  0  0
    7.6233  -12.0914   26.5176 C   0  0  0  0  0  0  0  0  0  0  0  0
    6.4667  -12.3729   25.8269 C   0  0  0  0  0  0  0  0  0  0  0  0
    6.0221  -13.6640   25.6543 C   0  0  0  0  0  0  0  0  0  0  0  0
    8.1087  -17.0781   24.5750 C   0  0  0  0  0  0  0  0  0  0  0  0
    8.6396  -18.1837   24.7988 O   0  0  0  0  0  0  0  0  0  0  0  0
    9.6764  -18.0471   19.8099 N   0  0  0  0  0  0  0  0  0  0  0  0
   11.0283  -17.6655   20.1073 C   0  0  0  0  0  0  0  0  0  0  0  0
   11.9484  -18.1735   19.4269 O   0  0  0  0  0  0  0  0  0  0  0  0
   11.2978  -16.7184   21.1735 C   0  0  0  0  0  0  0  0  0  0  0  0
   10.1254  -16.1778   21.9200 C   0  0  0  0  0  0  0  0  0  0  0  0
   10.1533  -16.3002   23.3990 C   0  0  2  0  0  0  0  0  0  0  0  0
    8.9857  -16.0132   24.1353 N   0  0  0  0  0  0  0  0  0  0  0  0
   11.4412  -15.8125   23.9311 C   0  0  0  0  0  0  0  0  0  0  0  0
   12.4744  -16.0949   23.2323 O   0  0  0  0  0  0  0  0  0  0  0  0
   11.6647  -15.0824   25.1124 N   0  0  0  0  0  0  0  0  0  0  0  0
   11.6960  -15.7162   26.4271 C   0  0  1  0  0  0  0  0  0  0  0  0
   10.3713  -16.1968   26.9070 C   0  0  0  0  0  0  0  0  0  0  0  0
   10.5879  -16.6420   28.6768 S   0  0  0  0  0  0  0  0  0  0  0  0
   12.6804  -16.8225   26.3723 C   0  0  0  0  0  0  0  0  0  0  0  0
   13.7609  -16.7883   27.0388 O   0  0  0  0  0  0  0  0  0  0  0  0
   12.4869  -17.9574   25.5959 O   0  0  0  0  0  0  0  0  0  0  0  0
  2  1  1  1
  2  3  1  0
  4  3  1  0
  5  4  2  0
  6  5  1  0
  7  6  2  0
  7  8  1  0
  8  9  2  0
  9  4  1  0
 10 18  1  0
 10  2  1  0
 11 10  2  0
 13 12  1  0
 14 13  2  0
 15 13  1  0
 17 16  1  6
 16 15  1  0
 17 18  1  0
 19 21  1  0
 19 17  1  0
 20 19  2  0
 22 25  1  0
 22 21  1  0
 22 23  1  6
 24 23  1  0
 25 27  1  0
 26 25  2  0
M  END
$$$$
