FQC.pdb
     RDKit          3D

 27 27  0  0  1  0  0  0  0  0999 V2000
    7.1354  -15.6697   25.3345 N   0  0  0  0  0  0  0  0  0  0  0  0
    6.9473  -14.8322   24.1642 C   0  0  1  0  0  0  0  0  0  0  0  0
    7.1925  -13.3892   24.3811 C   0  0  0  0  0  0  0  0  0  0  0  0
    6.9331  -12.8874   25.7470 C   0  0  0  0  0  0  0  0  0  0  0  0
    7.8978  -12.9263   26.7321 C   0  0  0  0  0  0  0  0  0  0  0  0
    7.6634  -12.4621   28.0094 C   0  0  0  0  0  0  0  0  0  0  0  0
    6.4335  -11.9315   28.3574 C   0  0  0  0  0  0  0  0  0  0  0  0
    5.4645  -11.8884   27.3811 C   0  0  0  0  0  0  0  0  0  0  0  0
    5.6991  -12.3519   26.1065 C   0  0  0  0  0  0  0  0  0  0  0  0
    7.5774  -15.4378   22.9688 C   0  0  0  0  0  0  0  0  0  0  0  0
    8.0158  -16.6039   22.9237 O   0  0  0  0  0  0  0  0  0  0  0  0
    7.8196  -13.2984   16.7572 N   0  0  0  0  0  0  0  0  0  0  0  0
    8.5970  -14.5024   16.8450 C   0  0  0  0  0  0  0  0  0  0  0  0
    9.0420  -14.9964   15.7841 O   0  0  0  0  0  0  0  0  0  0  0  0
    8.8447  -15.1143   18.1375 C   0  0  0  0  0  0  0  0  0  0  0  0
    8.2461  -14.4532   19.3328 C   0  0  0  0  0  0  0  0  0  0  0  0
    8.3625  -15.1689   20.6279 C   0  0  2  0  0  0  0  0  0  0  0  0
    7.7111  -14.6462   21.7638 N   0  0  0  0  0  0  0  0  0  0  0  0
    9.7289  -15.7007   20.8006 C   0  0  0  0  0  0  0  0  0  0  0  0
   10.6175  -14.8488   21.1477 O   0  0  0  0  0  0  0  0  0  0  0  0
   10.1669  -17.0256   20.6240 N   0  0  0  0  0  0  0  0  0  0  0  0
   11.5420  -17.4351   20.8935 C   0  0  1  0  0  0  0  0  0  0  0  0
   11.6789  -18.4443   21.9792 C   0  0  0  0  0  0  0  0  0  0  0  0
   10.9741  -17.6793   23.4943 S   0  0  0  0  0  0  0  0  0  0  0  0
   12.1231  -17.9309   19.6237 C   0  0  0  0  0  0  0  0  0  0  0  0
   13.3493  -18.2478   19.5294 O   0  0  0  0  0  0  0  0  0  0  0  0
   11.3714  -18.0799   18.4656 O   0  0  0  0  0  0  0  0  0  0  0  0
  2  1  1  1
  2  3  1  0
  4  3  1  0
  5  4  2  0
  6  5  1  0
  7  6  2  0
  7  8  1  0
  8  9  2  0
  9  4  1  0
 10 18  1  0
 10  2  1  0
 11 10  2  0
 13 12  1  0
 14 13  2  0
 15 13  1  0
 17 16  1  6
 16 15  1  0
 17 18  1  0
 19 21  1  0
 19 17  1  0
 20 19  2  0
 22 25  1  0
 22 21  1  0
 22 23  1  1
 24 23  1  0
 25 27  1  0
 26 25  2  0
M  END
$$$$
