GYS.pdb
     RDKit          3D

 23 23  0  0  1  0  0  0  0  0999 V2000
    7.7790  -12.5270   18.8646 N   0  0  0  0  0  0  0  0  0  0  0  0
    7.0131  -13.3109   19.8025 C   0  0  0  0  0  0  0  0  0  0  0  0
    7.7743  -13.5781   21.0511 C   0  0  0  0  0  0  0  0  0  0  0  0
    9.0280  -13.5931   21.0866 O   0  0  0  0  0  0  0  0  0  0  0  0
   10.3463  -14.7564   29.3391 O   0  0  0  0  0  0  0  0  0  0  0  0
    9.5298  -14.5693   28.2217 C   0  0  0  0  0  0  0  0  0  0  0  0
    9.4363  -13.3297   27.6242 C   0  0  0  0  0  0  0  0  0  0  0  0
    8.6251  -13.1740   26.5259 C   0  0  0  0  0  0  0  0  0  0  0  0
    7.8775  -14.2206   25.9724 C   0  0  0  0  0  0  0  0  0  0  0  0
    7.0507  -13.8957   24.7802 C   0  0  0  0  0  0  0  0  0  0  0  0
    7.8125  -14.1312   23.5211 C   0  0  2  0  0  0  0  0  0  0  0  0
    7.1601  -13.8379   22.3047 N   0  0  0  0  0  0  0  0  0  0  0  0
    8.1765  -15.5987   23.4500 C   0  0  0  0  0  0  0  0  0  0  0  0
    7.2982  -16.4651   23.2166 O   0  0  0  0  0  0  0  0  0  0  0  0
    7.9848  -15.4270   26.5744 C   0  0  0  0  0  0  0  0  0  0  0  0
    8.7987  -15.6077   27.6861 C   0  0  0  0  0  0  0  0  0  0  0  0
   11.2954  -17.1909   21.6345 O   0  0  0  0  0  0  0  0  0  0  0  0
   10.2888  -17.9345   22.2630 C   0  0  0  0  0  0  0  0  0  0  0  0
    9.9755  -17.3894   23.6084 C   0  0  2  0  0  0  0  0  0  0  0  0
    9.5037  -16.0347   23.6421 N   0  0  0  0  0  0  0  0  0  0  0  0
   11.0640  -17.6946   24.5757 C   0  0  0  0  0  0  0  0  0  0  0  0
   11.5827  -16.6895   25.3853 O   0  0  0  0  0  0  0  0  0  0  0  0
   11.5269  -18.8359   24.6807 O   0  0  0  0  0  0  0  0  0  0  0  0
  2  3  1  0
  2  1  1  0
  3  4  2  0
  5  6  1  0
  6  7  2  0
  7  8  1  0
  9 10  1  0
  9  8  2  0
 11 10  1  1
 11 13  1  0
 12 11  1  0
 12  3  1  0
 13 20  1  0
 14 13  2  0
 15  9  1  0
 16 15  2  0
 16  6  1  0
 18 17  1  0
 19 18  1  6
 20 19  1  0
 21 22  1  0
 21 19  1  0
 23 21  2  0
M  END
$$$$
