GYS.pdb
     RDKit          3D

 23 23  0  0  1  0  0  0  0  0999 V2000
    6.2256  -20.0040   20.3017 N   0  0  0  0  0  0  0  0  0  0  0  0
    6.0957  -19.8981   21.7344 C   0  0  0  0  0  0  0  0  0  0  0  0
    6.5849  -18.5879   22.2386 C   0  0  0  0  0  0  0  0  0  0  0  0
    7.1393  -17.7436   21.4951 O   0  0  0  0  0  0  0  0  0  0  0  0
    8.2780  -11.3852   26.9581 O   0  0  0  0  0  0  0  0  0  0  0  0
    7.7981  -12.6385   26.5716 C   0  0  0  0  0  0  0  0  0  0  0  0
    8.3428  -13.7894   27.1018 C   0  0  0  0  0  0  0  0  0  0  0  0
    7.8512  -15.0093   26.7036 C   0  0  0  0  0  0  0  0  0  0  0  0
    6.8123  -15.1496   25.7753 C   0  0  0  0  0  0  0  0  0  0  0  0
    6.3874  -16.5366   25.4500 C   0  0  0  0  0  0  0  0  0  0  0  0
    6.9826  -16.9896   24.1609 C   0  0  2  0  0  0  0  0  0  0  0  0
    6.4713  -18.1757   23.5927 N   0  0  0  0  0  0  0  0  0  0  0  0
    8.4594  -17.2400   24.3781 C   0  0  0  0  0  0  0  0  0  0  0  0
    8.8548  -18.2955   24.9313 O   0  0  0  0  0  0  0  0  0  0  0  0
    6.2934  -14.0078   25.2689 C   0  0  0  0  0  0  0  0  0  0  0  0
    6.7747  -12.7633   25.6568 C   0  0  0  0  0  0  0  0  0  0  0  0
   12.9353  -15.9227   22.8959 O   0  0  0  0  0  0  0  0  0  0  0  0
   11.5473  -15.7583   22.8076 C   0  0  0  0  0  0  0  0  0  0  0  0
   10.8451  -16.5179   23.8731 C   0  0  2  0  0  0  0  0  0  0  0  0
    9.4298  -16.3023   23.9684 N   0  0  0  0  0  0  0  0  0  0  0  0
   11.5776  -16.4281   25.1649 C   0  0  0  0  0  0  0  0  0  0  0  0
   12.9124  -16.8120   25.2405 O   0  0  0  0  0  0  0  0  0  0  0  0
   11.0228  -16.0148   26.1892 O   0  0  0  0  0  0  0  0  0  0  0  0
  2  3  1  0
  2  1  1  0
  3  4  2  0
  5  6  1  0
  6  7  2  0
  7  8  1  0
  9 10  1  0
  9  8  2  0
 11 10  1  1
 11 13  1  0
 12 11  1  0
 12  3  1  0
 13 20  1  0
 14 13  2  0
 15  9  1  0
 16 15  2  0
 16  6  1  0
 18 17  1  0
 19 18  1  6
 20 19  1  0
 21 22  1  0
 21 19  1  0
 23 21  2  0
M  END
$$$$
