GYS.pdb
     RDKit          3D

 23 23  0  0  1  0  0  0  0  0999 V2000
    6.6731  -21.3849   23.4011 N   0  0  0  0  0  0  0  0  0  0  0  0
    5.8477  -20.7194   24.3791 C   0  0  0  0  0  0  0  0  0  0  0  0
    6.0749  -19.2503   24.3867 C   0  0  0  0  0  0  0  0  0  0  0  0
    5.4922  -18.4736   23.5927 O   0  0  0  0  0  0  0  0  0  0  0  0
    6.8353  -10.9681   26.4099 O   0  0  0  0  0  0  0  0  0  0  0  0
    7.0167  -12.3511   26.4795 C   0  0  0  0  0  0  0  0  0  0  0  0
    5.9315  -13.2013   26.4374 C   0  0  0  0  0  0  0  0  0  0  0  0
    6.1392  -14.5579   26.5079 C   0  0  0  0  0  0  0  0  0  0  0  0
    7.4110  -15.1324   26.6220 C   0  0  0  0  0  0  0  0  0  0  0  0
    7.4728  -16.6166   26.6821 C   0  0  0  0  0  0  0  0  0  0  0  0
    7.2442  -17.2161   25.3370 C   0  0  2  0  0  0  0  0  0  0  0  0
    6.9622  -18.5977   25.2829 N   0  0  0  0  0  0  0  0  0  0  0  0
    8.4941  -17.0178   24.5066 C   0  0  0  0  0  0  0  0  0  0  0  0
    9.4940  -17.7599   24.6683 O   0  0  0  0  0  0  0  0  0  0  0  0
    8.4602  -14.2797   26.6613 C   0  0  0  0  0  0  0  0  0  0  0  0
    8.2741  -12.9044   26.5916 C   0  0  0  0  0  0  0  0  0  0  0  0
    8.2321  -14.9620   20.9022 O   0  0  0  0  0  0  0  0  0  0  0  0
    9.4285  -14.7260   21.5909 C   0  0  0  0  0  0  0  0  0  0  0  0
    9.6640  -15.7578   22.6327 C   0  0  2  0  0  0  0  0  0  0  0  0
    8.5734  -16.0010   23.5327 N   0  0  0  0  0  0  0  0  0  0  0  0
   10.9836  -15.5611   23.2913 C   0  0  0  0  0  0  0  0  0  0  0  0
   11.0828  -15.5789   24.6786 O   0  0  0  0  0  0  0  0  0  0  0  0
   12.0105  -15.3793   22.6277 O   0  0  0  0  0  0  0  0  0  0  0  0
  2  3  1  0
  2  1  1  0
  3  4  2  0
  5  6  1  0
  6  7  2  0
  7  8  1  0
  9 10  1  0
  9  8  2  0
 11 10  1  1
 11 13  1  0
 12 11  1  0
 12  3  1  0
 13 20  1  0
 14 13  2  0
 15  9  1  0
 16 15  2  0
 16  6  1  0
 18 17  1  0
 19 18  1  1
 20 19  1  0
 21 22  1  0
 21 19  1  0
 23 21  2  0
M  END
$$$$
