GYS.pdb
     RDKit          3D

 23 23  0  0  1  0  0  0  0  0999 V2000
    8.0518  -12.9915   18.9048 N   0  0  0  0  0  0  0  0  0  0  0  0
    7.3417  -13.7444   19.9096 C   0  0  0  0  0  0  0  0  0  0  0  0
    8.2004  -14.0444   21.0854 C   0  0  0  0  0  0  0  0  0  0  0  0
    9.4234  -13.7679   21.1154 O   0  0  0  0  0  0  0  0  0  0  0  0
    6.0284  -10.3781   27.2237 O   0  0  0  0  0  0  0  0  0  0  0  0
    6.4648  -11.5503   26.6025 C   0  0  0  0  0  0  0  0  0  0  0  0
    5.5764  -12.5699   26.3312 C   0  0  0  0  0  0  0  0  0  0  0  0
    6.0332  -13.7124   25.7193 C   0  0  0  0  0  0  0  0  0  0  0  0
    7.3709  -13.9005   25.3508 C   0  0  0  0  0  0  0  0  0  0  0  0
    7.7094  -15.1895   24.6920 C   0  0  0  0  0  0  0  0  0  0  0  0
    8.4681  -14.9617   23.4296 C   0  0  2  0  0  0  0  0  0  0  0  0
    7.7214  -14.6644   22.2697 N   0  0  0  0  0  0  0  0  0  0  0  0
    9.2476  -16.2184   23.1069 C   0  0  0  0  0  0  0  0  0  0  0  0
    8.6692  -17.2250   22.6287 O   0  0  0  0  0  0  0  0  0  0  0  0
    8.2240  -12.8876   25.6263 C   0  0  0  0  0  0  0  0  0  0  0  0
    7.7845  -11.7233   26.2445 C   0  0  0  0  0  0  0  0  0  0  0  0
   12.0375  -16.7121   20.9309 O   0  0  0  0  0  0  0  0  0  0  0  0
   12.5387  -17.2959   22.1011 C   0  0  0  0  0  0  0  0  0  0  0  0
   11.4767  -17.4426   23.1287 C   0  0  2  0  0  0  0  0  0  0  0  0
   10.6376  -16.2966   23.3317 N   0  0  0  0  0  0  0  0  0  0  0  0
   12.0190  -18.0468   24.3754 C   0  0  0  0  0  0  0  0  0  0  0  0
   11.7701  -17.4509   25.6074 O   0  0  0  0  0  0  0  0  0  0  0  0
   12.6956  -19.0809   24.3451 O   0  0  0  0  0  0  0  0  0  0  0  0
  2  3  1  0
  2  1  1  0
  3  4  2  0
  5  6  1  0
  6  7  2  0
  7  8  1  0
  9 10  1  0
  9  8  2  0
 11 10  1  1
 11 13  1  0
 12 11  1  0
 12  3  1  0
 13 20  1  0
 14 13  2  0
 15  9  1  0
 16 15  2  0
 16  6  1  0
 18 17  1  0
 19 18  1  6
 20 19  1  0
 21 22  1  0
 21 19  1  0
 23 21  2  0
M  END
$$$$
