GYS.pdb
     RDKit          3D

 23 23  0  0  1  0  0  0  0  0999 V2000
    7.9227  -14.3690   18.6810 N   0  0  0  0  0  0  0  0  0  0  0  0
    7.2335  -15.0968   19.7184 C   0  0  0  0  0  0  0  0  0  0  0  0
    7.9553  -15.0263   21.0161 C   0  0  0  0  0  0  0  0  0  0  0  0
    9.1414  -14.6290   21.1074 O   0  0  0  0  0  0  0  0  0  0  0  0
    6.2359  -10.2977   27.2142 O   0  0  0  0  0  0  0  0  0  0  0  0
    6.4610  -11.5253   26.5874 C   0  0  0  0  0  0  0  0  0  0  0  0
    5.7598  -12.6475   26.9763 C   0  0  0  0  0  0  0  0  0  0  0  0
    6.0016  -13.8425   26.3423 C   0  0  0  0  0  0  0  0  0  0  0  0
    6.9346  -13.9849   25.3079 C   0  0  0  0  0  0  0  0  0  0  0  0
    7.0790  -15.3419   24.7181 C   0  0  0  0  0  0  0  0  0  0  0  0
    7.9794  -15.3157   23.5308 C   0  0  2  0  0  0  0  0  0  0  0  0
    7.3757  -15.3979   22.2580 N   0  0  0  0  0  0  0  0  0  0  0  0
    8.9199  -16.4985   23.6180 C   0  0  0  0  0  0  0  0  0  0  0  0
    8.5080  -17.6618   23.3866 O   0  0  0  0  0  0  0  0  0  0  0  0
    7.6101  -12.8714   24.9432 C   0  0  0  0  0  0  0  0  0  0  0  0
    7.3822  -11.6523   25.5702 C   0  0  0  0  0  0  0  0  0  0  0  0
   13.1015  -16.1710   23.0829 O   0  0  0  0  0  0  0  0  0  0  0  0
   12.3264  -17.3343   22.9969 C   0  0  0  0  0  0  0  0  0  0  0  0
   11.2743  -17.3603   24.0447 C   0  0  2  0  0  0  0  0  0  0  0  0
   10.2780  -16.3313   23.9591 N   0  0  0  0  0  0  0  0  0  0  0  0
   11.8700  -17.5401   25.3961 C   0  0  0  0  0  0  0  0  0  0  0  0
   12.8052  -18.5451   25.6204 O   0  0  0  0  0  0  0  0  0  0  0  0
   11.5510  -16.8085   26.3399 O   0  0  0  0  0  0  0  0  0  0  0  0
  2  3  1  0
  2  1  1  0
  3  4  2  0
  5  6  1  0
  6  7  2  0
  7  8  1  0
  9 10  1  0
  9  8  2  0
 11 10  1  1
 11 13  1  0
 12 11  1  0
 12  3  1  0
 13 20  1  0
 14 13  2  0
 15  9  1  0
 16 15  2  0
 16  6  1  0
 18 17  1  0
 19 18  1  6
 20 19  1  0
 21 22  1  0
 21 19  1  0
 23 21  2  0
M  END
$$$$
