GYS.pdb
     RDKit          3D

 23 23  0  0  1  0  0  0  0  0999 V2000
    8.4021  -12.7327   17.8868 N   0  0  0  0  0  0  0  0  0  0  0  0
    7.6021  -13.6674   18.6398 C   0  0  0  0  0  0  0  0  0  0  0  0
    8.0143  -13.7237   20.0670 C   0  0  0  0  0  0  0  0  0  0  0  0
    9.2019  -13.5544   20.4332 O   0  0  0  0  0  0  0  0  0  0  0  0
    8.3904  -13.4995   28.7748 O   0  0  0  0  0  0  0  0  0  0  0  0
    7.8755  -13.5867   27.4795 C   0  0  0  0  0  0  0  0  0  0  0  0
    7.9765  -12.5178   26.6138 C   0  0  0  0  0  0  0  0  0  0  0  0
    7.4610  -12.6312   25.3451 C   0  0  0  0  0  0  0  0  0  0  0  0
    6.8296  -13.7899   24.8764 C   0  0  0  0  0  0  0  0  0  0  0  0
    6.3282  -13.7603   23.4772 C   0  0  0  0  0  0  0  0  0  0  0  0
    7.4273  -14.0368   22.5094 C   0  0  2  0  0  0  0  0  0  0  0  0
    7.1125  -13.9715   21.1355 N   0  0  0  0  0  0  0  0  0  0  0  0
    7.9334  -15.4429   22.7498 C   0  0  0  0  0  0  0  0  0  0  0  0
    7.3065  -16.4339   22.3010 O   0  0  0  0  0  0  0  0  0  0  0  0
    6.7422  -14.8252   25.7423 C   0  0  0  0  0  0  0  0  0  0  0  0
    7.2562  -14.7331   27.0301 C   0  0  0  0  0  0  0  0  0  0  0  0
   11.7293  -16.5925   22.5832 O   0  0  0  0  0  0  0  0  0  0  0  0
   10.6631  -17.4803   22.7740 C   0  0  0  0  0  0  0  0  0  0  0  0
    9.6992  -16.9585   23.7759 C   0  0  2  0  0  0  0  0  0  0  0  0
    9.1161  -15.6814   23.4799 N   0  0  0  0  0  0  0  0  0  0  0  0
   10.2378  -17.0929   25.1563 C   0  0  0  0  0  0  0  0  0  0  0  0
   10.7315  -18.3157   25.5988 O   0  0  0  0  0  0  0  0  0  0  0  0
   10.2586  -16.1314   25.9328 O   0  0  0  0  0  0  0  0  0  0  0  0
  2  3  1  0
  2  1  1  0
  3  4  2  0
  5  6  1  0
  6  7  2  0
  7  8  1  0
  9 10  1  0
  9  8  2  0
 11 10  1  1
 11 13  1  0
 12 11  1  0
 12  3  1  0
 13 20  1  0
 14 13  2  0
 15  9  1  0
 16 15  2  0
 16  6  1  0
 18 17  1  0
 19 18  1  6
 20 19  1  0
 21 22  1  0
 21 19  1  0
 23 21  2  0
M  END
$$$$
