GYS.pdb
     RDKit          3D

 23 23  0  0  1  0  0  0  0  0999 V2000
    5.0091  -19.7033   24.7449 N   0  0  0  0  0  0  0  0  0  0  0  0
    6.2518  -19.0887   25.1433 C   0  0  0  0  0  0  0  0  0  0  0  0
    6.6511  -17.9975   24.2160 C   0  0  0  0  0  0  0  0  0  0  0  0
    6.0604  -17.7853   23.1301 O   0  0  0  0  0  0  0  0  0  0  0  0
    5.3564  -11.6199   27.2837 O   0  0  0  0  0  0  0  0  0  0  0  0
    6.2221  -12.4478   26.5656 C   0  0  0  0  0  0  0  0  0  0  0  0
    6.6517  -12.0851   25.3061 C   0  0  0  0  0  0  0  0  0  0  0  0
    7.5033  -12.9189   24.6220 C   0  0  0  0  0  0  0  0  0  0  0  0
    7.9653  -14.1343   25.1416 C   0  0  0  0  0  0  0  0  0  0  0  0
    8.8868  -14.9232   24.2820 C   0  0  0  0  0  0  0  0  0  0  0  0
    8.1724  -16.0596   23.6344 C   0  0  2  0  0  0  0  0  0  0  0  0
    7.7257  -17.1048   24.4706 N   0  0  0  0  0  0  0  0  0  0  0  0
    9.1073  -16.7037   22.6333 C   0  0  0  0  0  0  0  0  0  0  0  0
    9.9683  -17.5378   23.0067 O   0  0  0  0  0  0  0  0  0  0  0  0
    7.5313  -14.4694   26.3780 C   0  0  0  0  0  0  0  0  0  0  0  0
    6.6700  -13.6420   27.0882 C   0  0  0  0  0  0  0  0  0  0  0  0
    9.4235  -15.3939   18.4789 O   0  0  0  0  0  0  0  0  0  0  0  0
    9.3032  -16.7457   18.8249 C   0  0  0  0  0  0  0  0  0  0  0  0
    9.7969  -16.9959   20.2029 C   0  0  2  0  0  0  0  0  0  0  0  0
    9.0402  -16.3892   21.2603 N   0  0  0  0  0  0  0  0  0  0  0  0
   11.2675  -16.7876   20.2899 C   0  0  0  0  0  0  0  0  0  0  0  0
   12.1176  -17.4132   19.3839 O   0  0  0  0  0  0  0  0  0  0  0  0
   11.7619  -16.0618   21.1598 O   0  0  0  0  0  0  0  0  0  0  0  0
  2  3  1  0
  2  1  1  0
  3  4  2  0
  5  6  1  0
  6  7  2  0
  7  8  1  0
  9 10  1  0
  9  8  2  0
 11 10  1  1
 11 13  1  0
 12 11  1  0
 12  3  1  0
 13 20  1  0
 14 13  2  0
 15  9  1  0
 16 15  2  0
 16  6  1  0
 18 17  1  0
 19 18  1  6
 20 19  1  0
 21 22  1  0
 21 19  1  0
 23 21  2  0
M  END
$$$$
