GYS.pdb
     RDKit          3D

 23 23  0  0  1  0  0  0  0  0999 V2000
    9.5857  -23.0627   21.0401 N   0  0  0  0  0  0  0  0  0  0  0  0
   10.2004  -23.0711   19.7352 C   0  0  0  0  0  0  0  0  0  0  0  0
   11.5612  -22.4732   19.7613 C   0  0  0  0  0  0  0  0  0  0  0  0
   11.7832  -21.3206   20.2033 O   0  0  0  0  0  0  0  0  0  0  0  0
   14.3917  -22.5917   25.6124 O   0  0  0  0  0  0  0  0  0  0  0  0
   14.5763  -22.7552   24.2378 C   0  0  0  0  0  0  0  0  0  0  0  0
   14.0440  -23.8481   23.5862 C   0  0  0  0  0  0  0  0  0  0  0  0
   14.2412  -23.9838   22.2331 C   0  0  0  0  0  0  0  0  0  0  0  0
   14.9637  -23.0595   21.4686 C   0  0  0  0  0  0  0  0  0  0  0  0
   15.0855  -23.3428   20.0142 C   0  0  0  0  0  0  0  0  0  0  0  0
   14.0337  -22.6251   19.2398 C   0  0  2  0  0  0  0  0  0  0  0  0
   12.7224  -23.1435   19.2936 N   0  0  0  0  0  0  0  0  0  0  0  0
   14.4230  -22.6400   17.7772 C   0  0  0  0  0  0  0  0  0  0  0  0
   13.9223  -23.4807   16.9905 O   0  0  0  0  0  0  0  0  0  0  0  0
   15.4763  -21.9959   22.1283 C   0  0  0  0  0  0  0  0  0  0  0  0
   15.2896  -21.8380   23.4963 C   0  0  0  0  0  0  0  0  0  0  0  0
   14.2937  -19.8005   15.2187 O   0  0  0  0  0  0  0  0  0  0  0  0
   15.6314  -20.2030   15.3182 C   0  0  0  0  0  0  0  0  0  0  0  0
   15.7424  -21.5717   15.8836 C   0  0  2  0  0  0  0  0  0  0  0  0
   15.3534  -21.7167   17.2570 N   0  0  0  0  0  0  0  0  0  0  0  0
   17.0518  -22.1882   15.5383 C   0  0  0  0  0  0  0  0  0  0  0  0
   17.8325  -22.7739   16.5294 O   0  0  0  0  0  0  0  0  0  0  0  0
   17.4710  -22.1938   14.3755 O   0  0  0  0  0  0  0  0  0  0  0  0
  2  3  1  0
  2  1  1  0
  3  4  2  0
  5  6  1  0
  6  7  2  0
  7  8  1  0
  9 10  1  0
  9  8  2  0
 11 10  1  1
 11 13  1  0
 12 11  1  0
 12  3  1  0
 13 20  1  0
 14 13  2  0
 15  9  1  0
 16 15  2  0
 16  6  1  0
 18 17  1  0
 19 18  1  1
 20 19  1  0
 21 22  1  0
 21 19  1  0
 23 21  2  0
M  END
$$$$
