GYS.pdb
     RDKit          3D

 23 23  0  0  1  0  0  0  0  0999 V2000
    6.0080  -19.5597   26.4028 N   0  0  0  0  0  0  0  0  0  0  0  0
    6.9863  -18.5470   26.7159 C   0  0  0  0  0  0  0  0  0  0  0  0
    7.3193  -17.7146   25.5301 C   0  0  0  0  0  0  0  0  0  0  0  0
    6.7076  -17.8183   24.4401 O   0  0  0  0  0  0  0  0  0  0  0  0
    5.0992  -11.5651   27.3807 O   0  0  0  0  0  0  0  0  0  0  0  0
    6.1203  -12.2934   26.7662 C   0  0  0  0  0  0  0  0  0  0  0  0
    6.0064  -12.6804   25.4473 C   0  0  0  0  0  0  0  0  0  0  0  0
    7.0263  -13.3963   24.8679 C   0  0  0  0  0  0  0  0  0  0  0  0
    8.1918  -13.7596   25.5537 C   0  0  0  0  0  0  0  0  0  0  0  0
    9.2070  -14.5299   24.7880 C   0  0  0  0  0  0  0  0  0  0  0  0
    8.7018  -15.8904   24.4488 C   0  0  2  0  0  0  0  0  0  0  0  0
    8.3485  -16.7363   25.5216 N   0  0  0  0  0  0  0  0  0  0  0  0
    9.7820  -16.6244   23.6837 C   0  0  0  0  0  0  0  0  0  0  0  0
   10.7065  -17.2172   24.2921 O   0  0  0  0  0  0  0  0  0  0  0  0
    8.2818  -13.3694   26.8456 C   0  0  0  0  0  0  0  0  0  0  0  0
    7.2629  -12.6449   27.4522 C   0  0  0  0  0  0  0  0  0  0  0  0
    9.9634  -16.3830   19.4004 O   0  0  0  0  0  0  0  0  0  0  0  0
   10.2766  -17.5926   20.0329 C   0  0  0  0  0  0  0  0  0  0  0  0
   10.7088  -17.3716   21.4364 C   0  0  2  0  0  0  0  0  0  0  0  0
    9.7829  -16.6648   22.2740 N   0  0  0  0  0  0  0  0  0  0  0  0
   12.1083  -16.8696   21.4920 C   0  0  0  0  0  0  0  0  0  0  0  0
   13.1236  -17.5531   20.8312 O   0  0  0  0  0  0  0  0  0  0  0  0
   12.3973  -15.8448   22.1198 O   0  0  0  0  0  0  0  0  0  0  0  0
  2  3  1  0
  2  1  1  0
  3  4  2  0
  5  6  1  0
  6  7  2  0
  7  8  1  0
  9 10  1  0
  9  8  2  0
 11 10  1  1
 11 13  1  0
 12 11  1  0
 12  3  1  0
 13 20  1  0
 14 13  2  0
 15  9  1  0
 16 15  2  0
 16  6  1  0
 18 17  1  0
 19 18  1  6
 20 19  1  0
 21 22  1  0
 21 19  1  0
 23 21  2  0
M  END
$$$$
