GYS.pdb
     RDKit          3D

 23 23  0  0  1  0  0  0  0  0999 V2000
    4.8274  -20.0927   21.5535 N   0  0  0  0  0  0  0  0  0  0  0  0
    5.7281  -20.0730   22.6800 C   0  0  0  0  0  0  0  0  0  0  0  0
    6.2085  -18.6984   22.9798 C   0  0  0  0  0  0  0  0  0  0  0  0
    6.3789  -17.8339   22.0872 O   0  0  0  0  0  0  0  0  0  0  0  0
    8.1084  -10.9864   26.5935 O   0  0  0  0  0  0  0  0  0  0  0  0
    7.7466  -12.3266   26.4409 C   0  0  0  0  0  0  0  0  0  0  0  0
    8.6154  -13.3316   26.8118 C   0  0  0  0  0  0  0  0  0  0  0  0
    8.2334  -14.6417   26.6506 C   0  0  0  0  0  0  0  0  0  0  0  0
    6.9921  -15.0174   26.1225 C   0  0  0  0  0  0  0  0  0  0  0  0
    6.7234  -16.4757   26.0153 C   0  0  0  0  0  0  0  0  0  0  0  0
    7.0268  -16.9759   24.6445 C   0  0  2  0  0  0  0  0  0  0  0  0
    6.5153  -18.2420   24.2890 N   0  0  0  0  0  0  0  0  0  0  0  0
    8.5293  -17.0818   24.4960 C   0  0  0  0  0  0  0  0  0  0  0  0
    9.1451  -18.0886   24.9244 O   0  0  0  0  0  0  0  0  0  0  0  0
    6.1565  -14.0155   25.7659 C   0  0  0  0  0  0  0  0  0  0  0  0
    6.5215  -12.6835   25.9198 C   0  0  0  0  0  0  0  0  0  0  0  0
   12.2873  -15.5324   21.8094 O   0  0  0  0  0  0  0  0  0  0  0  0
   10.9615  -15.3319   22.2135 C   0  0  0  0  0  0  0  0  0  0  0  0
   10.6309  -16.1526   23.4062 C   0  0  2  0  0  0  0  0  0  0  0  0
    9.2783  -16.0604   23.8759 N   0  0  0  0  0  0  0  0  0  0  0  0
   11.6688  -16.0037   24.4618 C   0  0  0  0  0  0  0  0  0  0  0  0
   12.9989  -16.2992   24.1819 O   0  0  0  0  0  0  0  0  0  0  0  0
   11.3759  -15.6182   25.5992 O   0  0  0  0  0  0  0  0  0  0  0  0
  2  3  1  0
  2  1  1  0
  3  4  2  0
  5  6  1  0
  6  7  2  0
  7  8  1  0
  9 10  1  0
  9  8  2  0
 11 10  1  1
 11 13  1  0
 12 11  1  0
 12  3  1  0
 13 20  1  0
 14 13  2  0
 15  9  1  0
 16 15  2  0
 16  6  1  0
 18 17  1  0
 19 18  1  6
 20 19  1  0
 21 22  1  0
 21 19  1  0
 23 21  2  0
M  END
$$$$
