FSA.pdb
     RDKit          3D

 23 23  0  0  1  0  0  0  0  0999 V2000
    6.0433  -17.9311   23.9263 N   0  0  0  0  0  0  0  0  0  0  0  0
    6.7234  -16.7042   24.2754 C   0  0  1  0  0  0  0  0  0  0  0  0
    6.0906  -16.1223   25.5269 C   0  0  0  0  0  0  0  0  0  0  0  0
    6.5618  -14.7272   25.6702 C   0  0  0  0  0  0  0  0  0  0  0  0
    6.6286  -13.8889   24.5779 C   0  0  0  0  0  0  0  0  0  0  0  0
    7.0756  -12.5765   24.7345 C   0  0  0  0  0  0  0  0  0  0  0  0
    7.4476  -12.1188   25.9668 C   0  0  0  0  0  0  0  0  0  0  0  0
    7.3849  -12.9437   27.0584 C   0  0  0  0  0  0  0  0  0  0  0  0
    6.9413  -14.2380   26.8885 C   0  0  0  0  0  0  0  0  0  0  0  0
    8.1611  -16.9428   24.4638 C   0  0  0  0  0  0  0  0  0  0  0  0
    8.5345  -17.7721   25.3325 O   0  0  0  0  0  0  0  0  0  0  0  0
   11.3182  -14.8874   22.4074 O   0  0  0  0  0  0  0  0  0  0  0  0
   11.3703  -16.2414   22.6778 C   0  0  0  0  0  0  0  0  0  0  0  0
   10.5231  -16.6081   23.8823 C   0  0  2  0  0  0  0  0  0  0  0  0
    9.1469  -16.2851   23.7156 N   0  0  0  0  0  0  0  0  0  0  0  0
   11.1028  -15.9877   25.1221 C   0  0  0  0  0  0  0  0  0  0  0  0
   12.3005  -15.6048   25.1560 O   0  0  0  0  0  0  0  0  0  0  0  0
   10.4508  -13.9309   27.8804 C   0  0  0  0  0  0  0  0  0  0  0  0
   10.8654  -15.3334   27.5441 C   0  0  2  0  0  0  0  0  0  0  0  0
   10.3332  -15.8056   26.3036 N   0  0  0  0  0  0  0  0  0  0  0  0
   10.5535  -16.2342   28.6815 C   0  0  0  0  0  0  0  0  0  0  0  0
   11.0640  -15.9645   29.7945 O   0  0  0  0  0  0  0  0  0  0  0  0
    9.7398  -17.3476   28.5960 O   0  0  0  0  0  0  0  0  0  0  0  0
  2  1  1  1
  2 10  1  0
  3  2  1  0
  4  5  2  0
  4  3  1  0
  6  5  1  0
  7  6  2  0
  8  7  1  0
  8  9  2  0
  9  4  1  0
 10 11  2  0
 10 15  1  0
 13 12  1  0
 14 13  1  6
 15 14  1  0
 16 14  1  0
 16 17  2  0
 19 18  1  1
 19 20  1  0
 20 16  1  0
 21 19  1  0
 22 21  2  0
 23 21  1  0
M  END
$$$$
