FSA.pdb
     RDKit          3D

 23 23  0  0  1  0  0  0  0  0999 V2000
    6.8856  -17.4876   20.9071 N   0  0  0  0  0  0  0  0  0  0  0  0
    7.9860  -16.8568   21.6005 C   0  0  1  0  0  0  0  0  0  0  0  0
    7.4524  -15.7155   22.4480 C   0  0  0  0  0  0  0  0  0  0  0  0
    7.5441  -14.4730   21.6501 C   0  0  0  0  0  0  0  0  0  0  0  0
    6.5914  -14.1720   20.7003 C   0  0  0  0  0  0  0  0  0  0  0  0
    6.6961  -12.9948   19.9586 C   0  0  0  0  0  0  0  0  0  0  0  0
    7.7397  -12.1389   20.1703 C   0  0  0  0  0  0  0  0  0  0  0  0
    8.6915  -12.4287   21.1116 C   0  0  0  0  0  0  0  0  0  0  0  0
    8.5750  -13.5955   21.8368 C   0  0  0  0  0  0  0  0  0  0  0  0
    8.7141  -17.8363   22.4189 C   0  0  0  0  0  0  0  0  0  0  0  0
    8.0875  -18.4906   23.2912 O   0  0  0  0  0  0  0  0  0  0  0  0
   12.8925  -18.6257   22.1009 O   0  0  0  0  0  0  0  0  0  0  0  0
   11.9892  -19.6239   22.4119 C   0  0  0  0  0  0  0  0  0  0  0  0
   10.7379  -19.0672   23.0657 C   0  0  2  0  0  0  0  0  0  0  0  0
   10.0867  -18.0800   22.2738 N   0  0  0  0  0  0  0  0  0  0  0  0
   11.0632  -18.5624   24.4431 C   0  0  0  0  0  0  0  0  0  0  0  0
   11.5755  -17.4262   24.6128 O   0  0  0  0  0  0  0  0  0  0  0  0
   10.3767  -19.5781   28.0101 C   0  0  0  0  0  0  0  0  0  0  0  0
   11.2102  -18.9572   26.9277 C   0  0  2  0  0  0  0  0  0  0  0  0
   10.8099  -19.3367   25.6083 N   0  0  0  0  0  0  0  0  0  0  0  0
   12.6471  -19.2209   27.1887 C   0  0  0  0  0  0  0  0  0  0  0  0
   13.1123  -18.8644   28.2972 O   0  0  0  0  0  0  0  0  0  0  0  0
   13.5046  -19.8315   26.2938 O   0  0  0  0  0  0  0  0  0  0  0  0
  2  1  1  1
  2 10  1  0
  3  2  1  0
  4  5  2  0
  4  3  1  0
  6  5  1  0
  7  6  2  0
  8  7  1  0
  8  9  2  0
  9  4  1  0
 10 11  2  0
 10 15  1  0
 13 12  1  0
 14 13  1  6
 15 14  1  0
 16 14  1  0
 16 17  2  0
 19 18  1  1
 19 20  1  0
 20 16  1  0
 21 19  1  0
 22 21  2  0
 23 21  1  0
M  END
$$$$
