FSA.pdb
     RDKit          3D

 23 23  0  0  1  0  0  0  0  0999 V2000
    8.1570  -14.0954   20.7572 N   0  0  0  0  0  0  0  0  0  0  0  0
    8.1822  -13.9464   22.1949 C   0  0  1  0  0  0  0  0  0  0  0  0
    6.8730  -13.3304   22.6551 C   0  0  0  0  0  0  0  0  0  0  0  0
    6.9354  -13.1711   24.1247 C   0  0  0  0  0  0  0  0  0  0  0  0
    7.6267  -12.1221   24.6924 C   0  0  0  0  0  0  0  0  0  0  0  0
    7.6731  -11.9897   26.0806 C   0  0  0  0  0  0  0  0  0  0  0  0
    7.0358  -12.8960   26.8798 C   0  0  0  0  0  0  0  0  0  0  0  0
    6.3463  -13.9418   26.3257 C   0  0  0  0  0  0  0  0  0  0  0  0
    6.3091  -14.0599   24.9525 C   0  0  0  0  0  0  0  0  0  0  0  0
    8.4232  -15.2411   22.8470 C   0  0  0  0  0  0  0  0  0  0  0  0
    7.6982  -16.2229   22.5434 O   0  0  0  0  0  0  0  0  0  0  0  0
   12.0665  -16.3190   24.6423 O   0  0  0  0  0  0  0  0  0  0  0  0
   11.1642  -17.1614   24.0217 C   0  0  0  0  0  0  0  0  0  0  0  0
    9.7296  -16.7425   24.2851 C   0  0  2  0  0  0  0  0  0  0  0  0
    9.4315  -15.4378   23.8004 N   0  0  0  0  0  0  0  0  0  0  0  0
    9.4160  -16.8871   25.7476 C   0  0  0  0  0  0  0  0  0  0  0  0
    9.7138  -15.9806   26.5671 O   0  0  0  0  0  0  0  0  0  0  0  0
    7.4844  -19.3074   27.9287 C   0  0  0  0  0  0  0  0  0  0  0  0
    8.5363  -18.2712   27.6609 C   0  0  2  0  0  0  0  0  0  0  0  0
    8.7743  -18.0436   26.2693 N   0  0  0  0  0  0  0  0  0  0  0  0
    9.7742  -18.6101   28.4061 C   0  0  0  0  0  0  0  0  0  0  0  0
   10.8013  -18.8764   27.7379 O   0  0  0  0  0  0  0  0  0  0  0  0
    9.8702  -18.6517   29.7838 O   0  0  0  0  0  0  0  0  0  0  0  0
  2  1  1  6
  2 10  1  0
  3  2  1  0
  4  5  2  0
  4  3  1  0
  6  5  1  0
  7  6  2  0
  8  7  1  0
  8  9  2  0
  9  4  1  0
 10 11  2  0
 10 15  1  0
 13 12  1  0
 14 13  1  1
 15 14  1  0
 16 14  1  0
 16 17  2  0
 19 18  1  6
 19 20  1  0
 20 16  1  0
 21 19  1  0
 22 21  2  0
 23 21  1  0
M  END
$$$$
