FSA.pdb
     RDKit          3D

 23 23  0  0  1  0  0  0  0  0999 V2000
    6.4449  -15.8561   25.6547 N   0  0  0  0  0  0  0  0  0  0  0  0
    6.4690  -15.7183   24.2160 C   0  0  1  0  0  0  0  0  0  0  0  0
    6.4750  -14.2431   23.8566 C   0  0  0  0  0  0  0  0  0  0  0  0
    6.6309  -13.4693   25.1080 C   0  0  0  0  0  0  0  0  0  0  0  0
    5.5340  -13.1375   25.8742 C   0  0  0  0  0  0  0  0  0  0  0  0
    5.7027  -12.4074   27.0512 C   0  0  0  0  0  0  0  0  0  0  0  0
    6.9514  -12.0200   27.4475 C   0  0  0  0  0  0  0  0  0  0  0  0
    8.0477  -12.3447   26.6934 C   0  0  0  0  0  0  0  0  0  0  0  0
    7.8657  -13.0664   25.5328 C   0  0  0  0  0  0  0  0  0  0  0  0
    7.6326  -16.4125   23.6472 C   0  0  0  0  0  0  0  0  0  0  0  0
    8.3638  -17.1012   24.4040 O   0  0  0  0  0  0  0  0  0  0  0  0
    9.3200  -15.9563   19.6792 O   0  0  0  0  0  0  0  0  0  0  0  0
    9.0569  -17.1846   20.2547 C   0  0  0  0  0  0  0  0  0  0  0  0
    9.0552  -17.1075   21.7703 C   0  0  2  0  0  0  0  0  0  0  0  0
    7.9713  -16.3444   22.2889 N   0  0  0  0  0  0  0  0  0  0  0  0
   10.3846  -16.6039   22.2573 C   0  0  0  0  0  0  0  0  0  0  0  0
   10.6477  -15.3739   22.2672 O   0  0  0  0  0  0  0  0  0  0  0  0
   12.2367  -16.2731   24.6859 C   0  0  0  0  0  0  0  0  0  0  0  0
   12.5561  -17.0631   23.4507 C   0  0  2  0  0  0  0  0  0  0  0  0
   11.3979  -17.4845   22.7254 N   0  0  0  0  0  0  0  0  0  0  0  0
   13.4573  -18.1904   23.7965 C   0  0  0  0  0  0  0  0  0  0  0  0
   14.5214  -17.9202   24.4023 O   0  0  0  0  0  0  0  0  0  0  0  0
   13.2026  -19.5148   23.4961 O   0  0  0  0  0  0  0  0  0  0  0  0
  2  1  1  1
  2 10  1  0
  3  2  1  0
  4  5  2  0
  4  3  1  0
  6  5  1  0
  7  6  2  0
  8  7  1  0
  8  9  2  0
  9  4  1  0
 10 11  2  0
 10 15  1  0
 13 12  1  0
 14 13  1  6
 15 14  1  0
 16 14  1  0
 16 17  2  0
 19 18  1  1
 19 20  1  0
 20 16  1  0
 21 19  1  0
 22 21  2  0
 23 21  1  0
M  END
$$$$
