FSA.pdb
     RDKit          3D

 23 23  0  0  1  0  0  0  0  0999 V2000
    6.0926  -16.6910   25.6977 N   0  0  0  0  0  0  0  0  0  0  0  0
    6.7840  -15.7332   24.8645 C   0  0  1  0  0  0  0  0  0  0  0  0
    7.9035  -15.0925   25.6655 C   0  0  0  0  0  0  0  0  0  0  0  0
    7.3997  -13.8128   26.2109 C   0  0  0  0  0  0  0  0  0  0  0  0
    7.2215  -13.6449   27.5675 C   0  0  0  0  0  0  0  0  0  0  0  0
    6.7456  -12.4299   28.0616 C   0  0  0  0  0  0  0  0  0  0  0  0
    6.4554  -11.4055   27.2055 C   0  0  0  0  0  0  0  0  0  0  0  0
    6.6291  -11.5621   25.8560 C   0  0  0  0  0  0  0  0  0  0  0  0
    7.1001  -12.7682   25.3823 C   0  0  0  0  0  0  0  0  0  0  0  0
    7.2974  -16.3783   23.6481 C   0  0  0  0  0  0  0  0  0  0  0  0
    7.5916  -17.6006   23.6818 O   0  0  0  0  0  0  0  0  0  0  0  0
    8.4123  -14.4499   19.9006 O   0  0  0  0  0  0  0  0  0  0  0  0
    7.6936  -15.6261   19.9960 C   0  0  0  0  0  0  0  0  0  0  0  0
    7.9860  -16.3611   21.2912 C   0  0  2  0  0  0  0  0  0  0  0  0
    7.4774  -15.6915   22.4397 N   0  0  0  0  0  0  0  0  0  0  0  0
    9.4596  -16.6333   21.4022 C   0  0  0  0  0  0  0  0  0  0  0  0
   10.0735  -17.2565   20.4984 O   0  0  0  0  0  0  0  0  0  0  0  0
   12.4275  -15.1571   22.7609 C   0  0  0  0  0  0  0  0  0  0  0  0
   11.6278  -16.4236   22.6693 C   0  0  2  0  0  0  0  0  0  0  0  0
   10.2224  -16.2038   22.5225 N   0  0  0  0  0  0  0  0  0  0  0  0
   11.9531  -17.3054   23.8178 C   0  0  0  0  0  0  0  0  0  0  0  0
   13.1497  -17.6489   23.9673 O   0  0  0  0  0  0  0  0  0  0  0  0
   11.0274  -17.7719   24.7314 O   0  0  0  0  0  0  0  0  0  0  0  0
  2  1  1  1
  2 10  1  0
  3  2  1  0
  4  5  2  0
  4  3  1  0
  6  5  1  0
  7  6  2  0
  8  7  1  0
  8  9  2  0
  9  4  1  0
 10 11  2  0
 10 15  1  0
 13 12  1  0
 14 13  1  6
 15 14  1  0
 16 14  1  0
 16 17  2  0
 19 18  1  1
 19 20  1  0
 20 16  1  0
 21 19  1  0
 22 21  2  0
 23 21  1  0
M  END
$$$$
