FSA.pdb
     RDKit          3D

 23 23  0  0  1  0  0  0  0  0999 V2000
    5.9653  -17.0921   21.2991 N   0  0  0  0  0  0  0  0  0  0  0  0
    6.9126  -16.2765   22.0250 C   0  0  1  0  0  0  0  0  0  0  0  0
    6.4828  -14.8224   21.9445 C   0  0  0  0  0  0  0  0  0  0  0  0
    7.2612  -14.1757   20.8652 C   0  0  0  0  0  0  0  0  0  0  0  0
    6.7171  -13.9991   19.6109 C   0  0  0  0  0  0  0  0  0  0  0  0
    7.4679  -13.3865   18.6069 C   0  0  0  0  0  0  0  0  0  0  0  0
    8.7407  -12.9609   18.8623 C   0  0  0  0  0  0  0  0  0  0  0  0
    9.2904  -13.1316   20.1052 C   0  0  0  0  0  0  0  0  0  0  0  0
    8.5367  -13.7384   21.0873 C   0  0  0  0  0  0  0  0  0  0  0  0
    7.0230  -16.7255   23.4199 C   0  0  0  0  0  0  0  0  0  0  0  0
    6.0213  -16.6294   24.1742 O   0  0  0  0  0  0  0  0  0  0  0  0
   10.1977  -18.9315   25.2459 O   0  0  0  0  0  0  0  0  0  0  0  0
    8.9468  -18.7122   25.7902 C   0  0  0  0  0  0  0  0  0  0  0  0
    8.3747  -17.3724   25.3650 C   0  0  2  0  0  0  0  0  0  0  0  0
    8.2016  -17.2613   23.9566 N   0  0  0  0  0  0  0  0  0  0  0  0
    9.2165  -16.2586   25.9205 C   0  0  0  0  0  0  0  0  0  0  0  0
   10.2452  -15.8602   25.3160 O   0  0  0  0  0  0  0  0  0  0  0  0
    9.0066  -13.4288   28.2616 C   0  0  0  0  0  0  0  0  0  0  0  0
    9.7370  -14.6524   27.7913 C   0  0  2  0  0  0  0  0  0  0  0  0
    8.8939  -15.6084   27.1430 N   0  0  0  0  0  0  0  0  0  0  0  0
   10.5086  -15.2380   28.9156 C   0  0  0  0  0  0  0  0  0  0  0  0
   10.2252  -16.4071   29.2694 O   0  0  0  0  0  0  0  0  0  0  0  0
   11.5161  -14.5825   29.5969 O   0  0  0  0  0  0  0  0  0  0  0  0
  2  1  1  6
  2 10  1  0
  3  2  1  0
  4  5  2  0
  4  3  1  0
  6  5  1  0
  7  6  2  0
  8  7  1  0
  8  9  2  0
  9  4  1  0
 10 11  2  0
 10 15  1  0
 13 12  1  0
 14 13  1  6
 15 14  1  0
 16 14  1  0
 16 17  2  0
 19 18  1  1
 19 20  1  0
 20 16  1  0
 21 19  1  0
 22 21  2  0
 23 21  1  0
M  END
$$$$
