YMC.pdb
     RDKit          3D

 27 27  0  0  1  0  0  0  0  0999 V2000
   10.9151  -19.3384   31.0193 O   0  0  0  0  0  0  0  0  0  0  0  0
   10.4561  -18.9841   29.7778 C   0  0  0  0  0  0  0  0  0  0  0  0
   10.1474  -17.6526   29.5321 C   0  0  0  0  0  0  0  0  0  0  0  0
    9.6836  -17.3397   28.2531 C   0  0  0  0  0  0  0  0  0  0  0  0
    9.5375  -18.3016   27.2785 C   0  0  0  0  0  0  0  0  0  0  0  0
    9.0404  -17.9051   25.9352 C   0  0  0  0  0  0  0  0  0  0  0  0
    7.5543  -18.1349   25.8023 C   0  0  2  0  0  0  0  0  0  0  0  0
    7.3443  -19.5582   25.6014 N   0  0  0  0  0  0  0  0  0  0  0  0
    7.0784  -17.3614   24.6180 C   0  0  0  0  0  0  0  0  0  0  0  0
    6.7543  -17.8977   23.5270 O   0  0  0  0  0  0  0  0  0  0  0  0
    9.8496  -19.6238   27.5400 C   0  0  0  0  0  0  0  0  0  0  0  0
   10.3089  -19.9516   28.7967 C   0  0  0  0  0  0  0  0  0  0  0  0
    6.1186  -12.0296   27.4055 C   0  0  0  0  0  0  0  0  0  0  0  0
    6.6524  -11.6177   25.7281 S   0  0  0  0  0  0  0  0  0  0  0  0
    7.3853  -13.0334   24.8851 C   0  0  0  0  0  0  0  0  0  0  0  0
    6.4162  -13.7225   23.9724 C   0  0  0  0  0  0  0  0  0  0  0  0
    6.9880  -15.0629   23.5814 C   0  0  2  0  0  0  0  0  0  0  0  0
    6.9897  -15.9422   24.7382 N   0  0  0  0  0  0  0  0  0  0  0  0
    8.3524  -14.9460   23.0184 C   0  0  0  0  0  0  0  0  0  0  0  0
    8.5215  -14.2347   22.0022 O   0  0  0  0  0  0  0  0  0  0  0  0
    9.4561  -15.6119   23.5959 N   0  0  0  0  0  0  0  0  0  0  0  0
   10.7499  -15.5734   22.9542 C   0  0  1  0  0  0  0  0  0  0  0  0
   11.7497  -15.1090   24.0058 C   0  0  0  0  0  0  0  0  0  0  0  0
   11.5938  -16.0905   25.4999 S   0  0  0  0  0  0  0  0  0  0  0  0
   11.1197  -16.9135   22.4074 C   0  0  0  0  0  0  0  0  0  0  0  0
   10.4160  -17.9258   22.5695 O   0  0  0  0  0  0  0  0  0  0  0  0
   12.2917  -17.0312   21.6928 O   0  0  0  0  0  0  0  0  0  0  0  0
  2  3  2  0
  2  1  1  0
  4  3  1  0
  5  4  2  0
  6  7  1  0
  6  5  1  0
  7  9  1  0
  7  8  1  6
  9 10  2  0
  9 18  1  0
 11  5  1  0
 11 12  2  0
 12  2  1  0
 14 13  1  0
 15 14  1  0
 16 15  1  0
 17 16  1  1
 17 19  1  0
 18 17  1  0
 19 20  2  0
 21 19  1  0
 21 22  1  0
 22 23  1  1
 23 24  1  0
 25 22  1  0
 25 27  1  0
 26 25  2  0
M  END
$$$$
