YMC.pdb
     RDKit          3D

 27 27  0  0  1  0  0  0  0  0999 V2000
   11.1329  -18.9076   29.9199 O   0  0  0  0  0  0  0  0  0  0  0  0
   10.4020  -18.9195   28.7610 C   0  0  0  0  0  0  0  0  0  0  0  0
   10.7713  -18.0695   27.7269 C   0  0  0  0  0  0  0  0  0  0  0  0
    9.9970  -18.1169   26.5662 C   0  0  0  0  0  0  0  0  0  0  0  0
    8.9179  -18.9641   26.4477 C   0  0  0  0  0  0  0  0  0  0  0  0
    8.1336  -18.9693   25.1853 C   0  0  0  0  0  0  0  0  0  0  0  0
    6.8081  -18.2662   25.3515 C   0  0  2  0  0  0  0  0  0  0  0  0
    5.7584  -19.2391   25.1034 N   0  0  0  0  0  0  0  0  0  0  0  0
    6.7494  -17.1627   24.3482 C   0  0  0  0  0  0  0  0  0  0  0  0
    6.1816  -17.2740   23.2310 O   0  0  0  0  0  0  0  0  0  0  0  0
    8.5633  -19.8046   27.4879 C   0  0  0  0  0  0  0  0  0  0  0  0
    9.3159  -19.7718   28.6413 C   0  0  0  0  0  0  0  0  0  0  0  0
    6.7141  -11.0488   26.8120 C   0  0  0  0  0  0  0  0  0  0  0  0
    6.2514  -12.7871   26.9921 S   0  0  0  0  0  0  0  0  0  0  0  0
    6.0371  -13.5986   25.3961 C   0  0  0  0  0  0  0  0  0  0  0  0
    7.2639  -13.5120   24.5391 C   0  0  0  0  0  0  0  0  0  0  0  0
    7.4041  -14.7977   23.7620 C   0  0  2  0  0  0  0  0  0  0  0  0
    7.3716  -15.9224   24.6814 N   0  0  0  0  0  0  0  0  0  0  0  0
    8.6422  -14.8283   22.9506 C   0  0  0  0  0  0  0  0  0  0  0  0
    9.3037  -13.7727   22.8281 O   0  0  0  0  0  0  0  0  0  0  0  0
    9.0892  -16.0096   22.3181 N   0  0  0  0  0  0  0  0  0  0  0  0
   10.3814  -16.0487   21.6733 C   0  0  1  0  0  0  0  0  0  0  0  0
   11.4150  -15.6986   22.7363 C   0  0  0  0  0  0  0  0  0  0  0  0
   13.0724  -16.0426   22.1408 S   0  0  0  0  0  0  0  0  0  0  0  0
   10.6465  -17.3939   21.0801 C   0  0  0  0  0  0  0  0  0  0  0  0
   11.5082  -17.5872   20.2046 O   0  0  0  0  0  0  0  0  0  0  0  0
    9.9031  -18.4658   21.5233 O   0  0  0  0  0  0  0  0  0  0  0  0
  2  3  2  0
  2  1  1  0
  4  3  1  0
  5  4  2  0
  6  7  1  0
  6  5  1  0
  7  9  1  0
  7  8  1  6
  9 10  2  0
  9 18  1  0
 11  5  1  0
 11 12  2  0
 12  2  1  0
 14 13  1  0
 15 14  1  0
 16 15  1  0
 17 16  1  1
 17 19  1  0
 18 17  1  0
 19 20  2  0
 21 19  1  0
 21 22  1  0
 22 23  1  1
 23 24  1  0
 25 22  1  0
 25 27  1  0
 26 25  2  0
M  END
$$$$
