YMC.pdb
     RDKit          3D

 27 27  0  0  1  0  0  0  0  0999 V2000
   10.5490  -14.0610   30.7654 O   0  0  0  0  0  0  0  0  0  0  0  0
   10.3112  -14.6175   29.5361 C   0  0  0  0  0  0  0  0  0  0  0  0
    9.9061  -13.7935   28.4943 C   0  0  0  0  0  0  0  0  0  0  0  0
    9.6759  -14.4055   27.2609 C   0  0  0  0  0  0  0  0  0  0  0  0
    9.8412  -15.7607   27.0808 C   0  0  0  0  0  0  0  0  0  0  0  0
    9.5819  -16.3527   25.7426 C   0  0  0  0  0  0  0  0  0  0  0  0
    8.1063  -16.3850   25.4255 C   0  0  2  0  0  0  0  0  0  0  0  0
    7.5138  -17.4671   26.1923 N   0  0  0  0  0  0  0  0  0  0  0  0
    7.9609  -16.6376   23.9616 C   0  0  0  0  0  0  0  0  0  0  0  0
    7.7319  -17.7754   23.4761 O   0  0  0  0  0  0  0  0  0  0  0  0
   10.2453  -16.5675   28.1296 C   0  0  0  0  0  0  0  0  0  0  0  0
   10.4773  -15.9813   29.3544 C   0  0  0  0  0  0  0  0  0  0  0  0
    7.2205  -11.5274   19.7454 C   0  0  0  0  0  0  0  0  0  0  0  0
    7.6587  -12.8957   18.6482 S   0  0  0  0  0  0  0  0  0  0  0  0
    7.7101  -14.4726   19.5214 C   0  0  0  0  0  0  0  0  0  0  0  0
    7.9042  -14.3047   20.9982 C   0  0  0  0  0  0  0  0  0  0  0  0
    8.0071  -15.6701   21.6319 C   0  0  2  0  0  0  0  0  0  0  0  0
    8.0897  -15.5264   23.0755 N   0  0  0  0  0  0  0  0  0  0  0  0
    9.1657  -16.4375   21.1212 C   0  0  0  0  0  0  0  0  0  0  0  0
   10.3101  -16.1364   21.5298 O   0  0  0  0  0  0  0  0  0  0  0  0
    9.0107  -17.4910   20.1931 N   0  0  0  0  0  0  0  0  0  0  0  0
   10.1501  -18.2821   19.7891 C   0  0  1  0  0  0  0  0  0  0  0  0
    9.6060  -19.4705   19.0063 C   0  0  0  0  0  0  0  0  0  0  0  0
   10.9410  -20.5618   18.5094 S   0  0  0  0  0  0  0  0  0  0  0  0
   11.0992  -17.4765   18.9634 C   0  0  0  0  0  0  0  0  0  0  0  0
   12.3344  -17.5849   19.0569 O   0  0  0  0  0  0  0  0  0  0  0  0
   10.5819  -16.5745   18.0595 O   0  0  0  0  0  0  0  0  0  0  0  0
  2  3  2  0
  2  1  1  0
  4  3  1  0
  5  4  2  0
  6  7  1  0
  6  5  1  0
  7  9  1  0
  7  8  1  1
  9 10  2  0
  9 18  1  0
 11  5  1  0
 11 12  2  0
 12  2  1  0
 14 13  1  0
 15 14  1  0
 16 15  1  0
 17 16  1  6
 17 19  1  0
 18 17  1  0
 19 20  2  0
 21 19  1  0
 21 22  1  0
 22 23  1  6
 23 24  1  0
 25 22  1  0
 25 27  1  0
 26 25  2  0
M  END
$$$$
