YMC.pdb
     RDKit          3D

 27 27  0  0  1  0  0  0  0  0999 V2000
   10.0551  -22.7372   19.1859 O   0  0  0  0  0  0  0  0  0  0  0  0
   10.0418  -21.6163   19.9739 C   0  0  0  0  0  0  0  0  0  0  0  0
   11.1257  -20.7496   19.9248 C   0  0  0  0  0  0  0  0  0  0  0  0
   11.0671  -19.6214   20.7449 C   0  0  0  0  0  0  0  0  0  0  0  0
    9.9885  -19.3754   21.5650 C   0  0  0  0  0  0  0  0  0  0  0  0
    9.9847  -18.1555   22.4138 C   0  0  0  0  0  0  0  0  0  0  0  0
    8.9191  -17.1787   21.9784 C   0  0  2  0  0  0  0  0  0  0  0  0
    9.2044  -16.7975   20.6061 N   0  0  0  0  0  0  0  0  0  0  0  0
    8.9943  -15.9915   22.8798 C   0  0  0  0  0  0  0  0  0  0  0  0
    9.8900  -15.1125   22.7916 O   0  0  0  0  0  0  0  0  0  0  0  0
    8.9167  -20.2494   21.6019 C   0  0  0  0  0  0  0  0  0  0  0  0
    8.9567  -21.3683   20.7993 C   0  0  0  0  0  0  0  0  0  0  0  0
    6.5848  -10.5996   26.9817 C   0  0  0  0  0  0  0  0  0  0  0  0
    6.6999  -11.9129   25.7448 S   0  0  0  0  0  0  0  0  0  0  0  0
    6.6485  -13.5528   26.4931 C   0  0  0  0  0  0  0  0  0  0  0  0
    6.6215  -14.6492   25.4712 C   0  0  0  0  0  0  0  0  0  0  0  0
    7.9805  -14.7403   24.8221 C   0  0  2  0  0  0  0  0  0  0  0  0
    7.9956  -15.8549   23.8900 N   0  0  0  0  0  0  0  0  0  0  0  0
    9.0671  -14.8836   25.8175 C   0  0  0  0  0  0  0  0  0  0  0  0
    9.0815  -14.1117   26.8030 O   0  0  0  0  0  0  0  0  0  0  0  0
   10.0774  -15.8614   25.6820 N   0  0  0  0  0  0  0  0  0  0  0  0
   10.9331  -16.1873   26.7994 C   0  0  1  0  0  0  0  0  0  0  0  0
   10.0297  -16.7143   27.9072 C   0  0  0  0  0  0  0  0  0  0  0  0
   10.7454  -16.3767   29.5177 S   0  0  0  0  0  0  0  0  0  0  0  0
   11.9633  -17.1973   26.4119 C   0  0  0  0  0  0  0  0  0  0  0  0
   12.9043  -17.5213   27.1574 O   0  0  0  0  0  0  0  0  0  0  0  0
   11.8651  -17.7949   25.1744 O   0  0  0  0  0  0  0  0  0  0  0  0
  2  3  2  0
  2  1  1  0
  4  3  1  0
  5  4  2  0
  6  7  1  0
  6  5  1  0
  7  9  1  0
  7  8  1  6
  9 10  2  0
  9 18  1  0
 11  5  1  0
 11 12  2  0
 12  2  1  0
 14 13  1  0
 15 14  1  0
 16 15  1  0
 17 16  1  1
 17 19  1  0
 18 17  1  0
 19 20  2  0
 21 19  1  0
 21 22  1  0
 22 23  1  1
 23 24  1  0
 25 22  1  0
 25 27  1  0
 26 25  2  0
M  END
$$$$
