YMC.pdb
     RDKit          3D

 27 27  0  0  1  0  0  0  0  0999 V2000
    6.9719  -15.1485   15.3338 O   0  0  0  0  0  0  0  0  0  0  0  0
    7.4744  -14.8298   16.5681 C   0  0  0  0  0  0  0  0  0  0  0  0
    6.8722  -13.8106   17.2941 C   0  0  0  0  0  0  0  0  0  0  0  0
    7.4188  -13.5217   18.5457 C   0  0  0  0  0  0  0  0  0  0  0  0
    8.5030  -14.2114   19.0411 C   0  0  0  0  0  0  0  0  0  0  0  0
    9.0381  -13.8578   20.3817 C   0  0  0  0  0  0  0  0  0  0  0  0
    9.3663  -15.0889   21.1915 C   0  0  2  0  0  0  0  0  0  0  0  0
    8.3047  -16.0562   20.9736 N   0  0  0  0  0  0  0  0  0  0  0  0
    9.4238  -14.6868   22.6277 C   0  0  0  0  0  0  0  0  0  0  0  0
   10.0757  -13.6936   23.0417 O   0  0  0  0  0  0  0  0  0  0  0  0
    9.0912  -15.2241   18.3046 C   0  0  0  0  0  0  0  0  0  0  0  0
    8.5654  -15.5234   17.0669 C   0  0  0  0  0  0  0  0  0  0  0  0
    5.9493  -11.6785   26.2306 C   0  0  0  0  0  0  0  0  0  0  0  0
    7.2863  -12.7643   26.7798 S   0  0  0  0  0  0  0  0  0  0  0  0
    6.8385  -14.5063   26.6516 C   0  0  0  0  0  0  0  0  0  0  0  0
    7.0305  -15.0478   25.2671 C   0  0  0  0  0  0  0  0  0  0  0  0
    8.5053  -15.0532   24.9489 C   0  0  2  0  0  0  0  0  0  0  0  0
    8.6997  -15.4746   23.5720 N   0  0  0  0  0  0  0  0  0  0  0  0
    9.2726  -15.9227   25.8694 C   0  0  0  0  0  0  0  0  0  0  0  0
    9.5272  -17.0952   25.5122 O   0  0  0  0  0  0  0  0  0  0  0  0
    9.7194  -15.4640   27.1285 N   0  0  0  0  0  0  0  0  0  0  0  0
   10.6958  -16.2209   27.8772 C   0  0  1  0  0  0  0  0  0  0  0  0
   10.9376  -15.4641   29.1772 C   0  0  0  0  0  0  0  0  0  0  0  0
   10.9784  -13.6953   28.8780 S   0  0  0  0  0  0  0  0  0  0  0  0
   10.2142  -17.6105   28.1392 C   0  0  0  0  0  0  0  0  0  0  0  0
    9.0923  -18.0136   27.7855 O   0  0  0  0  0  0  0  0  0  0  0  0
   11.0506  -18.4822   28.8017 O   0  0  0  0  0  0  0  0  0  0  0  0
  2  3  2  0
  2  1  1  0
  4  3  1  0
  5  4  2  0
  6  7  1  0
  6  5  1  0
  7  9  1  0
  7  8  1  1
  9 10  2  0
  9 18  1  0
 11  5  1  0
 11 12  2  0
 12  2  1  0
 14 13  1  0
 15 14  1  0
 16 15  1  0
 17 16  1  1
 17 19  1  0
 18 17  1  0
 19 20  2  0
 21 19  1  0
 21 22  1  0
 22 23  1  1
 23 24  1  0
 25 22  1  0
 25 27  1  0
 26 25  2  0
M  END
$$$$
