YMC.pdb
     RDKit          3D

 27 27  0  0  1  0  0  0  0  0999 V2000
    6.8810  -14.2132   15.1978 O   0  0  0  0  0  0  0  0  0  0  0  0
    7.4401  -14.2116   16.4488 C   0  0  0  0  0  0  0  0  0  0  0  0
    6.9646  -13.3126   17.3943 C   0  0  0  0  0  0  0  0  0  0  0  0
    7.5647  -13.3481   18.6543 C   0  0  0  0  0  0  0  0  0  0  0  0
    8.5799  -14.2304   18.9501 C   0  0  0  0  0  0  0  0  0  0  0  0
    9.1774  -14.2205   20.3109 C   0  0  0  0  0  0  0  0  0  0  0  0
    8.9731  -15.5390   21.0172 C   0  0  2  0  0  0  0  0  0  0  0  0
    7.5912  -15.9384   20.8148 N   0  0  0  0  0  0  0  0  0  0  0  0
    9.2511  -15.3259   22.4680 C   0  0  0  0  0  0  0  0  0  0  0  0
   10.3929  -15.0522   22.9199 O   0  0  0  0  0  0  0  0  0  0  0  0
    9.0419  -15.1195   17.9962 C   0  0  0  0  0  0  0  0  0  0  0  0
    8.4616  -15.0992   16.7470 C   0  0  0  0  0  0  0  0  0  0  0  0
    9.0032  -12.0609   27.8102 C   0  0  0  0  0  0  0  0  0  0  0  0
    7.4965  -12.4141   26.8756 S   0  0  0  0  0  0  0  0  0  0  0  0
    7.1794  -14.1847   26.7483 C   0  0  0  0  0  0  0  0  0  0  0  0
    6.9827  -14.6320   25.3311 C   0  0  0  0  0  0  0  0  0  0  0  0
    8.2983  -15.1424   24.7970 C   0  0  2  0  0  0  0  0  0  0  0  0
    8.1607  -15.4403   23.3815 N   0  0  0  0  0  0  0  0  0  0  0  0
    8.7753  -16.3354   25.5328 C   0  0  0  0  0  0  0  0  0  0  0  0
    7.9961  -17.3057   25.6691 O   0  0  0  0  0  0  0  0  0  0  0  0
   10.0763  -16.4029   26.0788 N   0  0  0  0  0  0  0  0  0  0  0  0
   10.5098  -17.5836   26.7895 C   0  0  1  0  0  0  0  0  0  0  0  0
   11.9947  -17.7549   26.4949 C   0  0  0  0  0  0  0  0  0  0  0  0
   12.3119  -17.5838   24.7370 S   0  0  0  0  0  0  0  0  0  0  0  0
   10.2588  -17.4515   28.2562 C   0  0  0  0  0  0  0  0  0  0  0  0
    9.7179  -16.4519   28.7607 O   0  0  0  0  0  0  0  0  0  0  0  0
   10.6439  -18.4829   29.0845 O   0  0  0  0  0  0  0  0  0  0  0  0
  2  3  2  0
  2  1  1  0
  4  3  1  0
  5  4  2  0
  6  7  1  0
  6  5  1  0
  7  9  1  0
  7  8  1  1
  9 10  2  0
  9 18  1  0
 11  5  1  0
 11 12  2  0
 12  2  1  0
 14 13  1  0
 15 14  1  0
 16 15  1  0
 17 16  1  1
 17 19  1  0
 18 17  1  0
 19 20  2  0
 21 19  1  0
 21 22  1  0
 22 23  1  1
 23 24  1  0
 25 22  1  0
 25 27  1  0
 26 25  2  0
M  END
$$$$
