YMC.pdb
     RDKit          3D

 27 27  0  0  1  0  0  0  0  0999 V2000
    8.8287  -14.0834   15.2197 O   0  0  0  0  0  0  0  0  0  0  0  0
    8.5200  -14.2216   16.5476 C   0  0  0  0  0  0  0  0  0  0  0  0
    7.4411  -13.5148   17.0620 C   0  0  0  0  0  0  0  0  0  0  0  0
    7.1652  -13.6875   18.4196 C   0  0  0  0  0  0  0  0  0  0  0  0
    7.9236  -14.5177   19.2145 C   0  0  0  0  0  0  0  0  0  0  0  0
    7.5782  -14.6609   20.6529 C   0  0  0  0  0  0  0  0  0  0  0  0
    7.5486  -16.1098   21.0759 C   0  0  2  0  0  0  0  0  0  0  0  0
    6.3499  -16.7086   20.5149 N   0  0  0  0  0  0  0  0  0  0  0  0
    7.5060  -16.1476   22.5673 C   0  0  0  0  0  0  0  0  0  0  0  0
    6.4355  -16.1527   23.2282 O   0  0  0  0  0  0  0  0  0  0  0  0
    8.9954  -15.2147   18.6860 C   0  0  0  0  0  0  0  0  0  0  0  0
    9.2829  -15.0569   17.3480 C   0  0  0  0  0  0  0  0  0  0  0  0
   11.6387  -17.5973   29.1361 C   0  0  0  0  0  0  0  0  0  0  0  0
   11.6440  -17.5382   27.3293 S   0  0  0  0  0  0  0  0  0  0  0  0
   10.1529  -16.7642   26.6738 C   0  0  0  0  0  0  0  0  0  0  0  0
   10.0974  -16.8026   25.1763 C   0  0  0  0  0  0  0  0  0  0  0  0
    8.8192  -16.1422   24.7217 C   0  0  2  0  0  0  0  0  0  0  0  0
    8.7472  -16.1794   23.2709 N   0  0  0  0  0  0  0  0  0  0  0  0
    8.7054  -14.7491   25.2099 C   0  0  0  0  0  0  0  0  0  0  0  0
    9.0740  -13.8192   24.4572 O   0  0  0  0  0  0  0  0  0  0  0  0
    8.1955  -14.4486   26.4925 N   0  0  0  0  0  0  0  0  0  0  0  0
    7.8551  -13.0890   26.8430 C   0  0  1  0  0  0  0  0  0  0  0  0
    6.4109  -12.8706   26.4096 C   0  0  0  0  0  0  0  0  0  0  0  0
    5.8202  -11.2716   26.9699 S   0  0  0  0  0  0  0  0  0  0  0  0
    8.0242  -12.8525   28.3083 C   0  0  0  0  0  0  0  0  0  0  0  0
    8.0582  -13.7752   29.1411 O   0  0  0  0  0  0  0  0  0  0  0  0
    8.1476  -11.5549   28.7547 O   0  0  0  0  0  0  0  0  0  0  0  0
  2  3  2  0
  2  1  1  0
  4  3  1  0
  5  4  2  0
  6  7  1  0
  6  5  1  0
  7  9  1  0
  7  8  1  6
  9 10  2  0
  9 18  1  0
 11  5  1  0
 11 12  2  0
 12  2  1  0
 14 13  1  0
 15 14  1  0
 16 15  1  0
 17 16  1  6
 17 19  1  0
 18 17  1  0
 19 20  2  0
 21 19  1  0
 21 22  1  0
 22 23  1  1
 23 24  1  0
 25 22  1  0
 25 27  1  0
 26 25  2  0
M  END
$$$$
