YMC.pdb
     RDKit          3D

 27 27  0  0  1  0  0  0  0  0999 V2000
   12.8514  -20.4809   30.0726 O   0  0  0  0  0  0  0  0  0  0  0  0
   11.9904  -20.1115   29.0727 C   0  0  0  0  0  0  0  0  0  0  0  0
   11.2350  -21.0916   28.4426 C   0  0  0  0  0  0  0  0  0  0  0  0
   10.3721  -20.6676   27.4304 C   0  0  0  0  0  0  0  0  0  0  0  0
   10.2713  -19.3422   27.0705 C   0  0  0  0  0  0  0  0  0  0  0  0
    9.3328  -18.9534   25.9857 C   0  0  0  0  0  0  0  0  0  0  0  0
    8.1113  -18.2541   26.5317 C   0  0  2  0  0  0  0  0  0  0  0  0
    7.1582  -19.2761   26.9279 N   0  0  0  0  0  0  0  0  0  0  0  0
    7.5479  -17.4047   25.4413 C   0  0  0  0  0  0  0  0  0  0  0  0
    6.6666  -17.8060   24.6381 O   0  0  0  0  0  0  0  0  0  0  0  0
   11.0314  -18.3783   27.7085 C   0  0  0  0  0  0  0  0  0  0  0  0
   11.8887  -18.7779   28.7101 C   0  0  0  0  0  0  0  0  0  0  0  0
    7.6979  -11.5039   27.1592 C   0  0  0  0  0  0  0  0  0  0  0  0
    6.3990  -12.7313   27.4327 S   0  0  0  0  0  0  0  0  0  0  0  0
    6.1676  -13.8015   25.9999 C   0  0  0  0  0  0  0  0  0  0  0  0
    7.3394  -13.7710   25.0657 C   0  0  0  0  0  0  0  0  0  0  0  0
    7.4540  -15.1141   24.3878 C   0  0  2  0  0  0  0  0  0  0  0  0
    8.0396  -16.0714   25.3109 N   0  0  0  0  0  0  0  0  0  0  0  0
    8.2491  -15.0449   23.1407 C   0  0  0  0  0  0  0  0  0  0  0  0
    9.4399  -14.6652   23.2104 O   0  0  0  0  0  0  0  0  0  0  0  0
    7.7000  -15.3941   21.8869 N   0  0  0  0  0  0  0  0  0  0  0  0
    8.4351  -15.1361   20.6703 C   0  0  1  0  0  0  0  0  0  0  0  0
    8.3755  -13.6329   20.4298 C   0  0  0  0  0  0  0  0  0  0  0  0
    6.6786  -13.0523   20.4897 S   0  0  0  0  0  0  0  0  0  0  0  0
    9.8464  -15.6127   20.7828 C   0  0  0  0  0  0  0  0  0  0  0  0
   10.6875  -15.4493   19.8816 O   0  0  0  0  0  0  0  0  0  0  0  0
   10.2313  -16.2613   21.9358 O   0  0  0  0  0  0  0  0  0  0  0  0
  2  3  2  0
  2  1  1  0
  4  3  1  0
  5  4  2  0
  6  7  1  0
  6  5  1  0
  7  9  1  0
  7  8  1  6
  9 10  2  0
  9 18  1  0
 11  5  1  0
 11 12  2  0
 12  2  1  0
 14 13  1  0
 15 14  1  0
 16 15  1  0
 17 16  1  1
 17 19  1  0
 18 17  1  0
 19 20  2  0
 21 19  1  0
 21 22  1  0
 22 23  1  1
 23 24  1  0
 25 22  1  0
 25 27  1  0
 26 25  2  0
M  END
$$$$
