YMC.pdb
     RDKit          3D

 27 27  0  0  1  0  0  0  0  0999 V2000
   11.2790  -15.8771   32.0350 O   0  0  0  0  0  0  0  0  0  0  0  0
   10.9630  -16.0566   30.7138 C   0  0  0  0  0  0  0  0  0  0  0  0
   10.3114  -15.0350   30.0356 C   0  0  0  0  0  0  0  0  0  0  0  0
   10.0102  -15.2636   28.6918 C   0  0  0  0  0  0  0  0  0  0  0  0
   10.3413  -16.4440   28.0644 C   0  0  0  0  0  0  0  0  0  0  0  0
    9.9949  -16.6266   26.6307 C   0  0  0  0  0  0  0  0  0  0  0  0
    8.5740  -17.1066   26.4589 C   0  0  2  0  0  0  0  0  0  0  0  0
    8.5397  -18.5166   26.8063 N   0  0  0  0  0  0  0  0  0  0  0  0
    8.1966  -16.9087   25.0285 C   0  0  0  0  0  0  0  0  0  0  0  0
    8.3228  -17.8010   24.1506 O   0  0  0  0  0  0  0  0  0  0  0  0
   10.9903  -17.4519   28.7549 C   0  0  0  0  0  0  0  0  0  0  0  0
   11.2959  -17.2443   30.0820 C   0  0  0  0  0  0  0  0  0  0  0  0
    6.8502  -11.4446   26.6808 C   0  0  0  0  0  0  0  0  0  0  0  0
    6.2446  -12.7568   25.5946 S   0  0  0  0  0  0  0  0  0  0  0  0
    7.2929  -12.9706   24.1431 C   0  0  0  0  0  0  0  0  0  0  0  0
    6.7333  -13.9668   23.1728 C   0  0  0  0  0  0  0  0  0  0  0  0
    7.5471  -15.2345   23.2562 C   0  0  2  0  0  0  0  0  0  0  0  0
    7.6668  -15.6399   24.6464 N   0  0  0  0  0  0  0  0  0  0  0  0
    8.8869  -15.0800   22.6451 C   0  0  0  0  0  0  0  0  0  0  0  0
    9.8401  -14.7247   23.3748 O   0  0  0  0  0  0  0  0  0  0  0  0
    9.1116  -15.3219   21.2717 N   0  0  0  0  0  0  0  0  0  0  0  0
   10.3351  -15.9514   20.8315 C   0  0  1  0  0  0  0  0  0  0  0  0
   10.4513  -17.2673   21.5905 C   0  0  0  0  0  0  0  0  0  0  0  0
   11.9006  -18.1786   21.0529 S   0  0  0  0  0  0  0  0  0  0  0  0
   10.3243  -16.1752   19.3546 C   0  0  0  0  0  0  0  0  0  0  0  0
    9.3005  -16.5030   18.7295 O   0  0  0  0  0  0  0  0  0  0  0  0
   11.5005  -16.0111   18.6562 O   0  0  0  0  0  0  0  0  0  0  0  0
  2  3  2  0
  2  1  1  0
  4  3  1  0
  5  4  2  0
  6  7  1  0
  6  5  1  0
  7  9  1  0
  7  8  1  6
  9 10  2  0
  9 18  1  0
 11  5  1  0
 11 12  2  0
 12  2  1  0
 14 13  1  0
 15 14  1  0
 16 15  1  0
 17 16  1  1
 17 19  1  0
 18 17  1  0
 19 20  2  0
 21 19  1  0
 21 22  1  0
 22 23  1  1
 23 24  1  0
 25 22  1  0
 25 27  1  0
 26 25  2  0
M  END
$$$$
