YMC.pdb
     RDKit          3D

 27 27  0  0  1  0  0  0  0  0999 V2000
    7.2789  -22.3289   29.2878 O   0  0  0  0  0  0  0  0  0  0  0  0
    7.5351  -21.6598   28.1198 C   0  0  0  0  0  0  0  0  0  0  0  0
    8.2938  -20.4976   28.1656 C   0  0  0  0  0  0  0  0  0  0  0  0
    8.5285  -19.8509   26.9509 C   0  0  0  0  0  0  0  0  0  0  0  0
    8.0335  -20.3380   25.7617 C   0  0  0  0  0  0  0  0  0  0  0  0
    8.3193  -19.6046   24.5011 C   0  0  0  0  0  0  0  0  0  0  0  0
    7.1224  -18.8105   24.0365 C   0  0  2  0  0  0  0  0  0  0  0  0
    6.6777  -19.3795   22.7761 N   0  0  0  0  0  0  0  0  0  0  0  0
    7.5599  -17.3959   23.8488 C   0  0  0  0  0  0  0  0  0  0  0  0
    8.4319  -17.0475   23.0114 O   0  0  0  0  0  0  0  0  0  0  0  0
    7.2791  -21.4974   25.7338 C   0  0  0  0  0  0  0  0  0  0  0  0
    7.0371  -22.1495   26.9229 C   0  0  0  0  0  0  0  0  0  0  0  0
    4.7385  -11.0607   26.2599 C   0  0  0  0  0  0  0  0  0  0  0  0
    6.2499  -11.8049   26.9157 S   0  0  0  0  0  0  0  0  0  0  0  0
    7.0978  -12.8115   25.6830 C   0  0  0  0  0  0  0  0  0  0  0  0
    6.5496  -14.2044   25.6039 C   0  0  0  0  0  0  0  0  0  0  0  0
    7.4529  -15.0315   24.7228 C   0  0  2  0  0  0  0  0  0  0  0  0
    6.9532  -16.3947   24.6648 N   0  0  0  0  0  0  0  0  0  0  0  0
    8.8578  -15.0149   25.1901 C   0  0  0  0  0  0  0  0  0  0  0  0
    9.4791  -13.9282   25.1798 O   0  0  0  0  0  0  0  0  0  0  0  0
    9.5061  -16.1854   25.6427 N   0  0  0  0  0  0  0  0  0  0  0  0
   10.6390  -16.0945   26.5346 C   0  0  1  0  0  0  0  0  0  0  0  0
   10.0825  -15.8339   27.9287 C   0  0  0  0  0  0  0  0  0  0  0  0
   11.3298  -15.0775   28.9736 S   0  0  0  0  0  0  0  0  0  0  0  0
   11.4532  -17.3464   26.5000 C   0  0  0  0  0  0  0  0  0  0  0  0
   11.0636  -18.3895   25.9465 O   0  0  0  0  0  0  0  0  0  0  0  0
   12.6894  -17.3436   27.1083 O   0  0  0  0  0  0  0  0  0  0  0  0
  2  3  2  0
  2  1  1  0
  4  3  1  0
  5  4  2  0
  6  7  1  0
  6  5  1  0
  7  9  1  0
  7  8  1  6
  9 10  2  0
  9 18  1  0
 11  5  1  0
 11 12  2  0
 12  2  1  0
 14 13  1  0
 15 14  1  0
 16 15  1  0
 17 16  1  1
 17 19  1  0
 18 17  1  0
 19 20  2  0
 21 19  1  0
 21 22  1  0
 22 23  1  1
 23 24  1  0
 25 22  1  0
 25 27  1  0
 26 25  2  0
M  END
$$$$
