KAL.pdb
     RDKit          3D

 23 22  0  0  1  0  0  0  0  0999 V2000
   19.9297  -14.4472  -19.2297 N   0  0  0  0  0  0  0  0  0  0  0  0
   21.0930  -14.3533  -18.3664 C   0  0  1  0  0  0  0  0  0  0  0  0
   22.2138  -15.2110  -18.8980 C   0  0  0  0  0  0  0  0  0  0  0  0
   21.6770  -16.5928  -19.1335 C   0  0  0  0  0  0  0  0  0  0  0  0
   21.9597  -17.5268  -17.9780 C   0  0  0  0  0  0  0  0  0  0  0  0
   21.4410  -18.9058  -18.3418 C   0  0  0  0  0  0  0  0  0  0  0  0
   21.6209  -19.8455  -17.2607 N   0  0  0  0  0  0  0  0  0  0  0  0
   21.4800  -12.9204  -18.2819 C   0  0  0  0  0  0  0  0  0  0  0  0
   22.5202  -12.5455  -17.6643 O   0  0  0  0  0  0  0  0  0  0  0  0
   20.1591   -9.7211  -19.7258 C   0  0  0  0  0  0  0  0  0  0  0  0
   21.0798  -10.4841  -18.7796 C   0  0  2  0  0  0  0  0  0  0  0  0
   20.7118  -11.8834  -18.8856 N   0  0  0  0  0  0  0  0  0  0  0  0
   20.9460   -9.9723  -17.4067 C   0  0  0  0  0  0  0  0  0  0  0  0
   19.9490  -10.3248  -16.7294 O   0  0  0  0  0  0  0  0  0  0  0  0
   24.4728  -10.8764  -13.9443 C   0  0  0  0  0  0  0  0  0  0  0  0
   23.1377  -10.4364  -14.4423 C   0  0  1  0  0  0  0  0  0  0  0  0
   22.0513  -10.7467  -13.4216 C   0  0  0  0  0  0  0  0  0  0  0  0
   23.1066   -9.0062  -14.8277 C   0  0  0  0  0  0  0  0  0  0  0  0
   21.8767   -8.5940  -15.5478 C   0  0  2  0  0  0  0  0  0  0  0  0
   21.9383   -9.1045  -16.8959 N   0  0  0  0  0  0  0  0  0  0  0  0
   21.5404   -7.1667  -15.5227 C   0  0  0  0  0  0  0  0  0  0  0  0
   21.2379   -6.5201  -14.4609 O   0  0  0  0  0  0  0  0  0  0  0  0
   21.5266   -6.3853  -16.6818 O   0  0  0  0  0  0  0  0  0  0  0  0
  2  3  1  0
  2  1  1  6
  4  3  1  0
  5  6  1  0
  5  4  1  0
  7  6  1  0
  8  2  1  0
  8 12  1  0
  9  8  2  0
 11 12  1  0
 11 10  1  6
 13 11  1  0
 13 14  2  0
 16 18  1  0
 16 15  1  1
 17 16  1  0
 19 18  1  6
 19 20  1  0
 19 21  1  0
 20 13  1  0
 21 22  2  0
 21 23  1  0
M  END
$$$$
