KAL.pdb
     RDKit          3D

 23 22  0  0  1  0  0  0  0  0999 V2000
   26.6771  -18.8735  -16.3224 N   0  0  0  0  0  0  0  0  0  0  0  0
   26.9750  -18.5256  -14.9448 C   0  0  1  0  0  0  0  0  0  0  0  0
   25.8304  -17.7539  -14.3373 C   0  0  0  0  0  0  0  0  0  0  0  0
   25.9636  -16.3159  -14.7466 C   0  0  0  0  0  0  0  0  0  0  0  0
   26.2125  -16.1584  -16.2301 C   0  0  0  0  0  0  0  0  0  0  0  0
   26.3093  -14.6765  -16.5425 C   0  0  0  0  0  0  0  0  0  0  0  0
   26.4658  -14.4391  -17.9580 N   0  0  0  0  0  0  0  0  0  0  0  0
   27.2492  -19.7874  -14.2082 C   0  0  0  0  0  0  0  0  0  0  0  0
   26.6386  -20.8637  -14.4779 O   0  0  0  0  0  0  0  0  0  0  0  0
   29.9401  -21.0216  -11.9924 C   0  0  0  0  0  0  0  0  0  0  0  0
   28.4907  -21.1066  -12.4584 C   0  0  2  0  0  0  0  0  0  0  0  0
   28.2095  -19.8676  -13.1587 N   0  0  0  0  0  0  0  0  0  0  0  0
   27.5928  -21.3182  -11.3122 C   0  0  0  0  0  0  0  0  0  0  0  0
   28.0580  -21.8552  -10.2767 O   0  0  0  0  0  0  0  0  0  0  0  0
   27.6976  -21.7144   -8.1531 C   0  0  0  0  0  0  0  0  0  0  0  0
   26.4271  -20.9498   -7.9936 C   0  0  1  0  0  0  0  0  0  0  0  0
   26.4613  -20.1033   -6.7284 C   0  0  0  0  0  0  0  0  0  0  0  0
   26.0996  -20.1189   -9.1756 C   0  0  0  0  0  0  0  0  0  0  0  0
   25.3844  -20.8449  -10.2537 C   0  0  2  0  0  0  0  0  0  0  0  0
   26.2421  -20.9127  -11.4120 N   0  0  0  0  0  0  0  0  0  0  0  0
   24.0424  -20.3647  -10.5995 C   0  0  0  0  0  0  0  0  0  0  0  0
   22.9667  -20.7857  -10.0492 O   0  0  0  0  0  0  0  0  0  0  0  0
   23.8309  -19.3872  -11.5761 O   0  0  0  0  0  0  0  0  0  0  0  0
  2  3  1  0
  2  1  1  6
  4  3  1  0
  5  6  1  0
  5  4  1  0
  7  6  1  0
  8  2  1  0
  8 12  1  0
  9  8  2  0
 11 12  1  0
 11 10  1  1
 13 11  1  0
 13 14  2  0
 16 18  1  0
 16 15  1  6
 17 16  1  0
 19 18  1  1
 19 20  1  0
 19 21  1  0
 20 13  1  0
 21 22  2  0
 21 23  1  0
M  END
$$$$
