KAL.pdb
     RDKit          3D

 23 22  0  0  1  0  0  0  0  0999 V2000
   27.9973  -22.3371  -16.8034 N   0  0  0  0  0  0  0  0  0  0  0  0
   26.7356  -23.0502  -16.7190 C   0  0  1  0  0  0  0  0  0  0  0  0
   26.8176  -24.1445  -15.6844 C   0  0  0  0  0  0  0  0  0  0  0  0
   27.4861  -25.3338  -16.3103 C   0  0  0  0  0  0  0  0  0  0  0  0
   26.5082  -26.2299  -17.0369 C   0  0  0  0  0  0  0  0  0  0  0  0
   27.2797  -27.3925  -17.6337 C   0  0  0  0  0  0  0  0  0  0  0  0
   26.4096  -28.3050  -18.3370 N   0  0  0  0  0  0  0  0  0  0  0  0
   25.6754  -22.0588  -16.3983 C   0  0  0  0  0  0  0  0  0  0  0  0
   25.8122  -21.2141  -15.4645 O   0  0  0  0  0  0  0  0  0  0  0  0
   22.5728  -20.8666  -18.0674 C   0  0  0  0  0  0  0  0  0  0  0  0
   23.4202  -21.0152  -16.8084 C   0  0  2  0  0  0  0  0  0  0  0  0
   24.4457  -21.9944  -17.1151 N   0  0  0  0  0  0  0  0  0  0  0  0
   22.5825  -21.4198  -15.6686 C   0  0  0  0  0  0  0  0  0  0  0  0
   22.4341  -22.6453  -15.4380 O   0  0  0  0  0  0  0  0  0  0  0  0
   20.8243  -21.2073  -10.7299 C   0  0  0  0  0  0  0  0  0  0  0  0
   20.4979  -19.9600  -11.4796 C   0  0  1  0  0  0  0  0  0  0  0  0
   20.5626  -18.7461  -10.5627 C   0  0  0  0  0  0  0  0  0  0  0  0
   21.3500  -19.7639  -12.6754 C   0  0  0  0  0  0  0  0  0  0  0  0
   21.1268  -20.7574  -13.7544 C   0  0  2  0  0  0  0  0  0  0  0  0
   21.9741  -20.4219  -14.8731 N   0  0  0  0  0  0  0  0  0  0  0  0
   19.7392  -20.9818  -14.1727 C   0  0  0  0  0  0  0  0  0  0  0  0
   18.9723  -21.8712  -13.6646 O   0  0  0  0  0  0  0  0  0  0  0  0
   19.1335  -20.2233  -15.1786 O   0  0  0  0  0  0  0  0  0  0  0  0
  2  3  1  0
  2  1  1  1
  4  3  1  0
  5  6  1  0
  5  4  1  0
  7  6  1  0
  8  2  1  0
  8 12  1  0
  9  8  2  0
 11 12  1  0
 11 10  1  6
 13 11  1  0
 13 14  2  0
 16 18  1  0
 16 15  1  1
 17 16  1  0
 19 18  1  1
 19 20  1  0
 19 21  1  0
 20 13  1  0
 21 22  2  0
 21 23  1  0
M  END
$$$$
