KAL.pdb
     RDKit          3D

 23 22  0  0  1  0  0  0  0  0999 V2000
   17.4718  -13.9154  -19.1758 N   0  0  0  0  0  0  0  0  0  0  0  0
   17.0534  -13.2653  -17.9470 C   0  0  1  0  0  0  0  0  0  0  0  0
   17.3094  -14.1632  -16.7627 C   0  0  0  0  0  0  0  0  0  0  0  0
   16.3849  -15.3418  -16.8580 C   0  0  0  0  0  0  0  0  0  0  0  0
   15.2368  -15.2560  -15.8772 C   0  0  0  0  0  0  0  0  0  0  0  0
   14.4334  -16.5401  -15.9700 C   0  0  0  0  0  0  0  0  0  0  0  0
   13.2753  -16.5080  -15.1087 N   0  0  0  0  0  0  0  0  0  0  0  0
   17.7914  -11.9792  -17.8410 C   0  0  0  0  0  0  0  0  0  0  0  0
   19.0290  -11.8970  -18.0974 O   0  0  0  0  0  0  0  0  0  0  0  0
   16.8553   -8.4333  -17.0470 C   0  0  0  0  0  0  0  0  0  0  0  0
   17.8931   -9.5215  -17.2999 C   0  0  2  0  0  0  0  0  0  0  0  0
   17.1595  -10.7645  -17.4470 N   0  0  0  0  0  0  0  0  0  0  0  0
   18.8653   -9.5722  -16.1968 C   0  0  0  0  0  0  0  0  0  0  0  0
   18.5665  -10.2191  -15.1627 O   0  0  0  0  0  0  0  0  0  0  0  0
   22.9639  -10.5862  -13.5038 C   0  0  0  0  0  0  0  0  0  0  0  0
   23.3346   -9.8834  -14.7659 C   0  0  1  0  0  0  0  0  0  0  0  0
   24.5534  -10.5324  -15.4076 C   0  0  0  0  0  0  0  0  0  0  0  0
   22.2137   -9.7969  -15.7306 C   0  0  0  0  0  0  0  0  0  0  0  0
   21.0978   -8.9220  -15.2941 C   0  0  2  0  0  0  0  0  0  0  0  0
   20.0986   -8.8948  -16.3346 N   0  0  0  0  0  0  0  0  0  0  0  0
   21.4507   -7.5712  -14.8451 C   0  0  0  0  0  0  0  0  0  0  0  0
   21.5428   -6.5588  -15.6222 O   0  0  0  0  0  0  0  0  0  0  0  0
   21.7169   -7.2787  -13.5043 O   0  0  0  0  0  0  0  0  0  0  0  0
  2  3  1  0
  2  1  1  6
  4  3  1  0
  5  6  1  0
  5  4  1  0
  7  6  1  0
  8  2  1  0
  8 12  1  0
  9  8  2  0
 11 12  1  0
 11 10  1  1
 13 11  1  0
 13 14  2  0
 16 18  1  0
 16 15  1  1
 17 16  1  0
 19 18  1  6
 19 20  1  0
 19 21  1  0
 20 13  1  0
 21 22  2  0
 21 23  1  0
M  END
$$$$
