KAL.pdb
     RDKit          3D

 23 22  0  0  1  0  0  0  0  0999 V2000
   20.7918  -19.0162  -15.9213 N   0  0  0  0  0  0  0  0  0  0  0  0
   20.9388  -20.0101  -14.8734 C   0  0  1  0  0  0  0  0  0  0  0  0
   20.0295  -21.1854  -15.1312 C   0  0  0  0  0  0  0  0  0  0  0  0
   18.7276  -20.6638  -15.6659 C   0  0  0  0  0  0  0  0  0  0  0  0
   17.8024  -20.1865  -14.5688 C   0  0  0  0  0  0  0  0  0  0  0  0
   16.3784  -20.5350  -14.9609 C   0  0  0  0  0  0  0  0  0  0  0  0
   15.6256  -21.0435  -13.8388 N   0  0  0  0  0  0  0  0  0  0  0  0
   22.3693  -20.4120  -14.8277 C   0  0  0  0  0  0  0  0  0  0  0  0
   22.7933  -21.2773  -14.0058 O   0  0  0  0  0  0  0  0  0  0  0  0
   25.4788  -19.3317  -16.6362 C   0  0  0  0  0  0  0  0  0  0  0  0
   24.7665  -20.1223  -15.5440 C   0  0  2  0  0  0  0  0  0  0  0  0
   23.3491  -19.8543  -15.6989 N   0  0  0  0  0  0  0  0  0  0  0  0
   25.2680  -19.7337  -14.2166 C   0  0  0  0  0  0  0  0  0  0  0  0
   24.8074  -18.6953  -13.6813 O   0  0  0  0  0  0  0  0  0  0  0  0
   25.6801  -19.5000   -9.3492 C   0  0  0  0  0  0  0  0  0  0  0  0
   25.3176  -20.7977   -9.9887 C   0  0  1  0  0  0  0  0  0  0  0  0
   24.0442  -21.3646   -9.3762 C   0  0  0  0  0  0  0  0  0  0  0  0
   25.1974  -20.7028  -11.4623 C   0  0  0  0  0  0  0  0  0  0  0  0
   26.4825  -20.4716  -12.1666 C   0  0  2  0  0  0  0  0  0  0  0  0
   26.2475  -20.5371  -13.5888 N   0  0  0  0  0  0  0  0  0  0  0  0
   27.6187  -21.3077  -11.7652 C   0  0  0  0  0  0  0  0  0  0  0  0
   28.6846  -20.8551  -11.2211 O   0  0  0  0  0  0  0  0  0  0  0  0
   27.6236  -22.6936  -11.9478 O   0  0  0  0  0  0  0  0  0  0  0  0
  2  3  1  0
  2  1  1  6
  4  3  1  0
  5  6  1  0
  5  4  1  0
  7  6  1  0
  8  2  1  0
  8 12  1  0
  9  8  2  0
 11 12  1  0
 11 10  1  6
 13 11  1  0
 13 14  2  0
 16 18  1  0
 16 15  1  1
 17 16  1  0
 19 18  1  1
 19 20  1  0
 19 21  1  0
 20 13  1  0
 21 22  2  0
 21 23  1  0
M  END
$$$$
