KAL.pdb
     RDKit          3D

 23 22  0  0  1  0  0  0  0  0999 V2000
   22.5680  -19.4746  -11.7773 N   0  0  0  0  0  0  0  0  0  0  0  0
   22.7632  -20.9001  -11.5838 C   0  0  1  0  0  0  0  0  0  0  0  0
   22.4503  -21.6515  -12.8534 C   0  0  0  0  0  0  0  0  0  0  0  0
   21.3372  -20.9352  -13.5612 C   0  0  0  0  0  0  0  0  0  0  0  0
   19.9751  -21.3044  -13.0175 C   0  0  0  0  0  0  0  0  0  0  0  0
   18.9224  -20.5822  -13.8381 C   0  0  0  0  0  0  0  0  0  0  0  0
   17.5996  -20.7668  -13.2899 N   0  0  0  0  0  0  0  0  0  0  0  0
   24.1678  -21.1095  -11.1444 C   0  0  0  0  0  0  0  0  0  0  0  0
   24.6463  -22.2690  -10.9689 O   0  0  0  0  0  0  0  0  0  0  0  0
   27.2798  -19.1741  -11.0769 C   0  0  0  0  0  0  0  0  0  0  0  0
   26.4119  -20.2346  -10.4080 C   0  0  2  0  0  0  0  0  0  0  0  0
   25.0606  -20.0277  -10.8938 N   0  0  0  0  0  0  0  0  0  0  0  0
   26.5033  -20.1262   -8.9436 C   0  0  0  0  0  0  0  0  0  0  0  0
   25.5360  -19.6272   -8.3173 O   0  0  0  0  0  0  0  0  0  0  0  0
   28.7963  -21.4171   -4.1521 C   0  0  0  0  0  0  0  0  0  0  0  0
   29.6228  -20.6321   -5.1138 C   0  0  1  0  0  0  0  0  0  0  0  0
   31.1053  -20.9079   -4.9025 C   0  0  0  0  0  0  0  0  0  0  0  0
   29.2399  -20.8606   -6.5266 C   0  0  0  0  0  0  0  0  0  0  0  0
   27.8934  -20.3510   -6.8848 C   0  0  2  0  0  0  0  0  0  0  0  0
   27.6707  -20.5847   -8.2911 N   0  0  0  0  0  0  0  0  0  0  0  0
   27.5866  -18.9668   -6.5095 C   0  0  0  0  0  0  0  0  0  0  0  0
   27.9077  -17.9460   -7.2109 O   0  0  0  0  0  0  0  0  0  0  0  0
   26.9028  -18.6494   -5.3323 O   0  0  0  0  0  0  0  0  0  0  0  0
  2  3  1  0
  2  1  1  6
  4  3  1  0
  5  6  1  0
  5  4  1  0
  7  6  1  0
  8  2  1  0
  8 12  1  0
  9  8  2  0
 11 12  1  0
 11 10  1  6
 13 11  1  0
 13 14  2  0
 16 18  1  0
 16 15  1  1
 17 16  1  0
 19 18  1  6
 19 20  1  0
 19 21  1  0
 20 13  1  0
 21 22  2  0
 21 23  1  0
M  END
$$$$
