KAL.pdb
     RDKit          3D

 23 22  0  0  1  0  0  0  0  0999 V2000
   25.0210  -24.4833  -16.9888 N   0  0  0  0  0  0  0  0  0  0  0  0
   25.9696  -25.4855  -16.5378 C   0  0  1  0  0  0  0  0  0  0  0  0
   25.5425  -26.8580  -16.9943 C   0  0  0  0  0  0  0  0  0  0  0  0
   24.3344  -27.2624  -16.2007 C   0  0  0  0  0  0  0  0  0  0  0  0
   23.2144  -27.7783  -17.0764 C   0  0  0  0  0  0  0  0  0  0  0  0
   22.0691  -28.2113  -16.1798 C   0  0  0  0  0  0  0  0  0  0  0  0
   20.9175  -28.6229  -16.9470 N   0  0  0  0  0  0  0  0  0  0  0  0
   27.3078  -25.1135  -17.0676 C   0  0  0  0  0  0  0  0  0  0  0  0
   27.4422  -24.2995  -18.0286 O   0  0  0  0  0  0  0  0  0  0  0  0
   30.7837  -25.3339  -15.8598 C   0  0  0  0  0  0  0  0  0  0  0  0
   29.8218  -25.2638  -17.0409 C   0  0  2  0  0  0  0  0  0  0  0  0
   28.5171  -25.6443  -16.5331 N   0  0  0  0  0  0  0  0  0  0  0  0
   30.2773  -26.1429  -18.1291 C   0  0  0  0  0  0  0  0  0  0  0  0
   31.4184  -25.9516  -18.6173 O   0  0  0  0  0  0  0  0  0  0  0  0
   30.5291  -31.2549  -17.8184 C   0  0  0  0  0  0  0  0  0  0  0  0
   30.6782  -29.8355  -18.2512 C   0  0  1  0  0  0  0  0  0  0  0  0
   32.0936  -29.5670  -18.7440 C   0  0  0  0  0  0  0  0  0  0  0  0
   29.6799  -29.4330  -19.2690 C   0  0  0  0  0  0  0  0  0  0  0  0
   29.7825  -28.0169  -19.6992 C   0  0  2  0  0  0  0  0  0  0  0  0
   29.4211  -27.1699  -18.5883 N   0  0  0  0  0  0  0  0  0  0  0  0
   29.0666  -27.6418  -20.9230 C   0  0  0  0  0  0  0  0  0  0  0  0
   27.9084  -27.0983  -20.9379 O   0  0  0  0  0  0  0  0  0  0  0  0
   29.6073  -27.8515  -22.1950 O   0  0  0  0  0  0  0  0  0  0  0  0
  2  3  1  0
  2  1  1  6
  4  3  1  0
  5  6  1  0
  5  4  1  0
  7  6  1  0
  8  2  1  0
  8 12  1  0
  9  8  2  0
 11 12  1  0
 11 10  1  1
 13 11  1  0
 13 14  2  0
 16 18  1  0
 16 15  1  6
 17 16  1  0
 19 18  1  1
 19 20  1  0
 19 21  1  0
 20 13  1  0
 21 22  2  0
 21 23  1  0
M  END
$$$$
