GVP.pdb
     RDKit          3D

 19 19  0  0  1  0  0  0  0  0999 V2000
    8.7204  -15.2978   20.6123 N   0  0  0  0  0  0  0  0  0  0  0  0
    7.9219  -15.6106   21.7786 C   0  0  0  0  0  0  0  0  0  0  0  0
    8.3439  -14.7966   22.9356 C   0  0  0  0  0  0  0  0  0  0  0  0
    9.4807  -14.2609   22.9073 O   0  0  0  0  0  0  0  0  0  0  0  0
    5.9570  -12.4902   25.3872 C   0  0  0  0  0  0  0  0  0  0  0  0
    6.7531  -13.5549   26.0530 C   0  0  2  0  0  0  0  0  0  0  0  0
    7.1333  -13.0630   27.4441 C   0  0  0  0  0  0  0  0  0  0  0  0
    7.9819  -14.0370   25.3016 C   0  0  2  0  0  0  0  0  0  0  0  0
    7.4840  -14.6338   24.0353 N   0  0  0  0  0  0  0  0  0  0  0  0
    8.6074  -15.1164   26.0747 C   0  0  0  0  0  0  0  0  0  0  0  0
    8.3798  -16.3128   25.6480 O   0  0  0  0  0  0  0  0  0  0  0  0
    9.4223  -15.0182   27.2108 N   0  0  0  0  0  0  0  0  0  0  0  0
    9.2507  -13.9770   28.2525 C   0  0  0  0  0  0  0  0  0  0  0  0
   10.6607  -13.6594   28.6585 C   0  0  0  0  0  0  0  0  0  0  0  0
   11.5413  -14.7543   28.1516 C   0  0  0  0  0  0  0  0  0  0  0  0
   10.5500  -15.7915   27.6633 C   0  0  1  0  0  0  0  0  0  0  0  0
   10.1549  -16.6693   28.8230 C   0  0  0  0  0  0  0  0  0  0  0  0
   11.0521  -17.5848   29.2923 O   0  0  0  0  0  0  0  0  0  0  0  0
    9.0257  -16.5495   29.3337 O   0  0  0  0  0  0  0  0  0  0  0  0
  1  2  1  0
  3  2  1  0
  3  4  2  0
  6  5  1  6
  6  8  1  0
  7  6  1  0
  8  9  1  6
  9  3  1  0
 10 12  1  0
 10  8  1  0
 11 10  2  0
 12 16  1  0
 13 12  1  0
 13 14  1  0
 14 15  1  0
 16 15  1  0
 17 18  1  0
 16 17  1  1
 19 17  2  0
M  END
$$$$
