GVP.pdb
     RDKit          3D

 19 19  0  0  1  0  0  0  0  0999 V2000
    6.0839  -19.4047   26.8959 N   0  0  0  0  0  0  0  0  0  0  0  0
    6.7698  -18.1662   27.1982 C   0  0  0  0  0  0  0  0  0  0  0  0
    6.3733  -17.1040   26.2527 C   0  0  0  0  0  0  0  0  0  0  0  0
    5.6895  -17.4228   25.2473 O   0  0  0  0  0  0  0  0  0  0  0  0
    8.2705  -13.3860   26.9070 C   0  0  0  0  0  0  0  0  0  0  0  0
    7.0930  -13.4437   26.0010 C   0  0  2  0  0  0  0  0  0  0  0  0
    5.8776  -12.9411   26.7705 C   0  0  0  0  0  0  0  0  0  0  0  0
    6.8045  -14.7938   25.3678 C   0  0  2  0  0  0  0  0  0  0  0  0
    6.7587  -15.7725   26.4849 N   0  0  0  0  0  0  0  0  0  0  0  0
    7.9408  -15.1607   24.5144 C   0  0  0  0  0  0  0  0  0  0  0  0
    8.7559  -16.0282   25.0127 O   0  0  0  0  0  0  0  0  0  0  0  0
    8.2535  -14.6971   23.2292 N   0  0  0  0  0  0  0  0  0  0  0  0
    7.9384  -13.3281   22.7548 C   0  0  0  0  0  0  0  0  0  0  0  0
    7.5745  -13.5376   21.3134 C   0  0  0  0  0  0  0  0  0  0  0  0
    8.0512  -14.8953   20.9131 C   0  0  0  0  0  0  0  0  0  0  0  0
    8.8882  -15.3274   22.1003 C   0  0  1  0  0  0  0  0  0  0  0  0
   10.2896  -14.8018   21.9233 C   0  0  0  0  0  0  0  0  0  0  0  0
   11.1130  -15.4110   21.0209 O   0  0  0  0  0  0  0  0  0  0  0  0
   10.6752  -13.8276   22.5961 O   0  0  0  0  0  0  0  0  0  0  0  0
  1  2  1  0
  3  2  1  0
  3  4  2  0
  6  5  1  1
  6  8  1  0
  7  6  1  0
  8  9  1  1
  9  3  1  0
 10 12  1  0
 10  8  1  0
 11 10  2  0
 12 16  1  0
 13 12  1  0
 13 14  1  0
 14 15  1  0
 16 15  1  0
 17 18  1  0
 16 17  1  6
 19 17  2  0
M  END
$$$$
