GVP.pdb
     RDKit          3D

 19 19  0  0  1  0  0  0  0  0999 V2000
   13.9937  -14.4511   19.1084 N   0  0  0  0  0  0  0  0  0  0  0  0
   12.7717  -15.2256   19.1608 C   0  0  0  0  0  0  0  0  0  0  0  0
   11.7826  -14.5834   20.0489 C   0  0  0  0  0  0  0  0  0  0  0  0
   12.2025  -13.8999   21.0166 O   0  0  0  0  0  0  0  0  0  0  0  0
    8.2261  -12.9556   18.8585 C   0  0  0  0  0  0  0  0  0  0  0  0
    8.1379  -13.9680   19.9438 C   0  0  2  0  0  0  0  0  0  0  0  0
    6.9789  -13.5855   20.8560 C   0  0  0  0  0  0  0  0  0  0  0  0
    9.4042  -14.1906   20.7524 C   0  0  2  0  0  0  0  0  0  0  0  0
   10.4076  -14.7417   19.8051 N   0  0  0  0  0  0  0  0  0  0  0  0
    9.1395  -15.2272   21.7572 C   0  0  0  0  0  0  0  0  0  0  0  0
    9.5822  -16.4056   21.4734 O   0  0  0  0  0  0  0  0  0  0  0  0
    8.4745  -15.1042   22.9848 N   0  0  0  0  0  0  0  0  0  0  0  0
    7.6524  -13.9269   23.3549 C   0  0  0  0  0  0  0  0  0  0  0  0
    7.9234  -13.7644   24.8225 C   0  0  0  0  0  0  0  0  0  0  0  0
    8.5487  -15.0281   25.3157 C   0  0  0  0  0  0  0  0  0  0  0  0
    8.3985  -15.9669   24.1355 C   0  0  1  0  0  0  0  0  0  0  0  0
    7.0458  -16.6274   24.2097 C   0  0  0  0  0  0  0  0  0  0  0  0
    6.0764  -16.2451   23.3281 O   0  0  0  0  0  0  0  0  0  0  0  0
    6.8315  -17.5053   25.0663 O   0  0  0  0  0  0  0  0  0  0  0  0
  1  2  1  0
  3  2  1  0
  3  4  2  0
  6  5  1  6
  6  8  1  0
  7  6  1  0
  8  9  1  6
  9  3  1  0
 10 12  1  0
 10  8  1  0
 11 10  2  0
 12 16  1  0
 13 12  1  0
 13 14  1  0
 14 15  1  0
 16 15  1  0
 17 18  1  0
 16 17  1  1
 19 17  2  0
M  END
$$$$
