GVP.pdb
     RDKit          3D

 19 19  0  0  1  0  0  0  0  0999 V2000
    5.2377  -19.4243   25.4169 N   0  0  0  0  0  0  0  0  0  0  0  0
    5.8779  -18.4039   26.2197 C   0  0  0  0  0  0  0  0  0  0  0  0
    5.9543  -17.1279   25.4811 C   0  0  0  0  0  0  0  0  0  0  0  0
    5.5863  -17.1095   24.2793 O   0  0  0  0  0  0  0  0  0  0  0  0
    5.8620  -13.1257   27.0413 C   0  0  0  0  0  0  0  0  0  0  0  0
    7.0568  -13.6614   26.3370 C   0  0  2  0  0  0  0  0  0  0  0  0
    7.7820  -12.4943   25.6784 C   0  0  0  0  0  0  0  0  0  0  0  0
    6.7962  -14.7670   25.3286 C   0  0  2  0  0  0  0  0  0  0  0  0
    6.4294  -15.9698   26.1201 N   0  0  0  0  0  0  0  0  0  0  0  0
    8.0531  -15.0701   24.6340 C   0  0  0  0  0  0  0  0  0  0  0  0
    8.8808  -15.8204   25.2799 O   0  0  0  0  0  0  0  0  0  0  0  0
    8.4694  -14.6566   23.3612 N   0  0  0  0  0  0  0  0  0  0  0  0
    8.1857  -13.3116   22.8051 C   0  0  0  0  0  0  0  0  0  0  0  0
    7.9457  -13.5841   21.3484 C   0  0  0  0  0  0  0  0  0  0  0  0
    8.4640  -14.9521   21.0466 C   0  0  0  0  0  0  0  0  0  0  0  0
    9.2012  -15.3260   22.3168 C   0  0  1  0  0  0  0  0  0  0  0  0
   10.6088  -14.7934   22.2359 C   0  0  0  0  0  0  0  0  0  0  0  0
   10.9876  -13.7992   23.0911 O   0  0  0  0  0  0  0  0  0  0  0  0
   11.4011  -15.2625   21.3977 O   0  0  0  0  0  0  0  0  0  0  0  0
  1  2  1  0
  3  2  1  0
  3  4  2  0
  6  5  1  6
  6  8  1  0
  7  6  1  0
  8  9  1  1
  9  3  1  0
 10 12  1  0
 10  8  1  0
 11 10  2  0
 12 16  1  0
 13 12  1  0
 13 14  1  0
 14 15  1  0
 16 15  1  0
 17 18  1  0
 16 17  1  6
 19 17  2  0
M  END
$$$$
