GVP.pdb
     RDKit          3D

 19 19  0  0  1  0  0  0  0  0999 V2000
    5.2685  -19.6588   25.4103 N   0  0  0  0  0  0  0  0  0  0  0  0
    6.0320  -18.6510   26.1154 C   0  0  0  0  0  0  0  0  0  0  0  0
    6.0022  -17.3671   25.3872 C   0  0  0  0  0  0  0  0  0  0  0  0
    5.6358  -17.3697   24.1849 O   0  0  0  0  0  0  0  0  0  0  0  0
    5.8528  -13.3626   26.8499 C   0  0  0  0  0  0  0  0  0  0  0  0
    7.1044  -13.8995   26.2532 C   0  0  2  0  0  0  0  0  0  0  0  0
    7.8600  -12.7409   25.6140 C   0  0  0  0  0  0  0  0  0  0  0  0
    6.9356  -15.0391   25.2634 C   0  0  2  0  0  0  0  0  0  0  0  0
    6.3774  -16.1785   26.0367 N   0  0  0  0  0  0  0  0  0  0  0  0
    8.2638  -15.4448   24.7887 C   0  0  0  0  0  0  0  0  0  0  0  0
    8.9191  -16.2342   25.5714 O   0  0  0  0  0  0  0  0  0  0  0  0
    8.9107  -15.0920   23.5964 N   0  0  0  0  0  0  0  0  0  0  0  0
    8.6934  -13.8015   22.8993 C   0  0  0  0  0  0  0  0  0  0  0  0
    8.7605  -14.1779   21.4475 C   0  0  0  0  0  0  0  0  0  0  0  0
    9.3802  -15.5338   21.3539 C   0  0  0  0  0  0  0  0  0  0  0  0
    9.8617  -15.7878   22.7683 C   0  0  1  0  0  0  0  0  0  0  0  0
   11.2357  -15.1896   22.9281 C   0  0  0  0  0  0  0  0  0  0  0  0
   12.3038  -15.8342   22.3740 O   0  0  0  0  0  0  0  0  0  0  0  0
   11.3781  -14.1248   23.5577 O   0  0  0  0  0  0  0  0  0  0  0  0
  1  2  1  0
  3  2  1  0
  3  4  2  0
  6  5  1  6
  6  8  1  0
  7  6  1  0
  8  9  1  1
  9  3  1  0
 10 12  1  0
 10  8  1  0
 11 10  2  0
 12 16  1  0
 13 12  1  0
 13 14  1  0
 14 15  1  0
 16 15  1  0
 17 18  1  0
 16 17  1  6
 19 17  2  0
M  END
$$$$
