GVP.pdb
     RDKit          3D

 19 19  0  0  1  0  0  0  0  0999 V2000
    5.3249  -19.4794   25.2806 N   0  0  0  0  0  0  0  0  0  0  0  0
    5.9679  -18.4555   26.0767 C   0  0  0  0  0  0  0  0  0  0  0  0
    5.9283  -17.1521   25.3844 C   0  0  0  0  0  0  0  0  0  0  0  0
    5.4176  -17.0996   24.2371 O   0  0  0  0  0  0  0  0  0  0  0  0
    5.9549  -13.1941   27.0076 C   0  0  0  0  0  0  0  0  0  0  0  0
    7.1026  -13.7029   26.2108 C   0  0  2  0  0  0  0  0  0  0  0  0
    7.7626  -12.5165   25.5189 C   0  0  0  0  0  0  0  0  0  0  0  0
    6.7843  -14.7980   25.2076 C   0  0  2  0  0  0  0  0  0  0  0  0
    6.4532  -16.0063   26.0064 N   0  0  0  0  0  0  0  0  0  0  0  0
    8.0018  -15.1005   24.4458 C   0  0  0  0  0  0  0  0  0  0  0  0
    8.8218  -15.9233   25.0077 O   0  0  0  0  0  0  0  0  0  0  0  0
    8.3877  -14.6176   23.1878 N   0  0  0  0  0  0  0  0  0  0  0  0
    8.0428  -13.2639   22.6909 C   0  0  0  0  0  0  0  0  0  0  0  0
    7.7994  -13.4856   21.2261 C   0  0  0  0  0  0  0  0  0  0  0  0
    8.3708  -14.8171   20.8631 C   0  0  0  0  0  0  0  0  0  0  0  0
    9.1358  -15.2122   22.1103 C   0  0  1  0  0  0  0  0  0  0  0  0
   10.5192  -14.6184   22.0397 C   0  0  0  0  0  0  0  0  0  0  0  0
   11.4573  -15.2242   21.2547 O   0  0  0  0  0  0  0  0  0  0  0  0
   10.7866  -13.5921   22.6922 O   0  0  0  0  0  0  0  0  0  0  0  0
  1  2  1  0
  3  2  1  0
  3  4  2  0
  6  5  1  6
  6  8  1  0
  7  6  1  0
  8  9  1  1
  9  3  1  0
 10 12  1  0
 10  8  1  0
 11 10  2  0
 12 16  1  0
 13 12  1  0
 13 14  1  0
 14 15  1  0
 16 15  1  0
 17 18  1  0
 16 17  1  6
 19 17  2  0
M  END
$$$$
