CFK.pdb
     RDKit          3D

 27 27  0  0  1  0  0  0  0  0999 V2000
   34.6880  -31.6271  -17.9781 N   0  0  0  0  0  0  0  0  0  0  0  0
   33.8431  -30.8485  -18.8441 C   0  0  1  0  0  0  0  0  0  0  0  0
   33.5854  -31.5122  -20.1760 C   0  0  0  0  0  0  0  0  0  0  0  0
   32.9543  -33.1872  -19.8171 S   0  0  0  0  0  0  0  0  0  0  0  0
   32.6117  -30.4494  -18.1479 C   0  0  0  0  0  0  0  0  0  0  0  0
   32.1957  -31.0328  -17.1057 O   0  0  0  0  0  0  0  0  0  0  0  0
   31.8480  -29.3766  -18.6435 N   0  0  0  0  0  0  0  0  0  0  0  0
   30.6194  -28.8904  -18.0384 C   0  0  1  0  0  0  0  0  0  0  0  0
   30.3131  -27.4890  -18.5213 C   0  0  0  0  0  0  0  0  0  0  0  0
   29.0123  -26.9809  -18.0572 C   0  0  0  0  0  0  0  0  0  0  0  0
   28.9019  -26.4263  -16.7908 C   0  0  0  0  0  0  0  0  0  0  0  0
   27.7158  -25.9366  -16.3018 C   0  0  0  0  0  0  0  0  0  0  0  0
   26.5722  -25.9800  -17.0668 C   0  0  0  0  0  0  0  0  0  0  0  0
   26.6650  -26.5287  -18.3288 C   0  0  0  0  0  0  0  0  0  0  0  0
   27.8750  -27.0273  -18.8255 C   0  0  0  0  0  0  0  0  0  0  0  0
   29.4832  -29.7821  -18.2355 C   0  0  0  0  0  0  0  0  0  0  0  0
   29.3232  -30.3170  -19.3842 O   0  0  0  0  0  0  0  0  0  0  0  0
   28.5251  -30.1188  -17.2550 N   0  0  0  0  0  0  0  0  0  0  0  0
   27.4435  -31.0572  -17.4872 C   0  0  1  0  0  0  0  0  0  0  0  0
   27.4088  -32.1089  -16.3724 C   0  0  0  0  0  0  0  0  0  0  0  0
   26.4258  -33.1963  -16.7009 C   0  0  0  0  0  0  0  0  0  0  0  0
   26.4303  -34.2524  -15.6381 C   0  0  0  0  0  0  0  0  0  0  0  0
   25.5097  -35.3665  -15.9871 C   0  0  0  0  0  0  0  0  0  0  0  0
   25.6308  -36.4229  -14.9863 N   0  0  0  0  0  0  0  0  0  0  0  0
   26.1581  -30.3299  -17.3992 C   0  0  0  0  0  0  0  0  0  0  0  0
   26.1072  -29.0836  -16.7421 O   0  0  0  0  0  0  0  0  0  0  0  0
   25.0831  -30.7618  -17.8841 O   0  0  0  0  0  0  0  0  0  0  0  0
  2  1  1  1
  2  3  1  0
  3  4  1  0
  5  6  2  0
  5  2  1  0
  7  5  1  0
  8  7  1  0
  8  9  1  6
 10  9  1  0
 11 10  2  0
 12 11  1  0
 13 12  2  0
 13 14  1  0
 14 15  2  0
 15 10  1  0
 16  8  1  0
 16 18  1  0
 17 16  2  0
 19 18  1  0
 19 25  1  0
 19 20  1  1
 21 20  1  0
 22 21  1  0
 23 24  1  0
 23 22  1  0
 25 26  1  0
 27 25  2  0
M  END
$$$$
