CFK.pdb
     RDKit          3D

 27 27  0  0  1  0  0  0  0  0999 V2000
   24.3445  -12.0371  -19.5326 N   0  0  0  0  0  0  0  0  0  0  0  0
   23.9737  -10.6875  -19.8658 C   0  0  1  0  0  0  0  0  0  0  0  0
   22.9511  -10.6090  -20.9745 C   0  0  0  0  0  0  0  0  0  0  0  0
   23.7454  -11.2839  -22.4732 S   0  0  0  0  0  0  0  0  0  0  0  0
   23.5798   -9.9438  -18.6607 C   0  0  0  0  0  0  0  0  0  0  0  0
   22.7800  -10.4114  -17.7997 O   0  0  0  0  0  0  0  0  0  0  0  0
   24.1015   -8.6568  -18.4351 N   0  0  0  0  0  0  0  0  0  0  0  0
   23.8692   -7.8719  -17.2343 C   0  0  1  0  0  0  0  0  0  0  0  0
   25.1852   -7.4311  -16.6303 C   0  0  0  0  0  0  0  0  0  0  0  0
   26.0489   -8.5522  -16.2266 C   0  0  0  0  0  0  0  0  0  0  0  0
   25.6878   -9.3455  -15.1478 C   0  0  0  0  0  0  0  0  0  0  0  0
   26.4525  -10.4043  -14.7234 C   0  0  0  0  0  0  0  0  0  0  0  0
   27.6274  -10.7215  -15.3668 C   0  0  0  0  0  0  0  0  0  0  0  0
   28.0008   -9.9422  -16.4418 C   0  0  0  0  0  0  0  0  0  0  0  0
   27.2200   -8.8633  -16.8729 C   0  0  0  0  0  0  0  0  0  0  0  0
   22.9741   -6.7408  -17.4446 C   0  0  0  0  0  0  0  0  0  0  0  0
   23.2375   -5.9261  -18.3923 O   0  0  0  0  0  0  0  0  0  0  0  0
   21.8183   -6.4572  -16.6852 N   0  0  0  0  0  0  0  0  0  0  0  0
   20.9412   -5.3345  -16.9586 C   0  0  1  0  0  0  0  0  0  0  0  0
   19.5130   -5.8302  -17.2124 C   0  0  0  0  0  0  0  0  0  0  0  0
   18.6165   -4.6877  -17.5966 C   0  0  0  0  0  0  0  0  0  0  0  0
   17.2660   -4.8396  -16.9661 C   0  0  0  0  0  0  0  0  0  0  0  0
   16.3136   -3.8254  -17.4904 C   0  0  0  0  0  0  0  0  0  0  0  0
   15.8796   -4.2182  -18.8281 N   0  0  0  0  0  0  0  0  0  0  0  0
   20.8674   -4.4856  -15.7491 C   0  0  0  0  0  0  0  0  0  0  0  0
   20.9608   -5.0805  -14.4744 O   0  0  0  0  0  0  0  0  0  0  0  0
   20.7232   -3.2385  -15.7858 O   0  0  0  0  0  0  0  0  0  0  0  0
  2  1  1  1
  2  3  1  0
  3  4  1  0
  5  6  2  0
  5  2  1  0
  7  5  1  0
  8  7  1  0
  8  9  1  6
 10  9  1  0
 11 10  2  0
 12 11  1  0
 13 12  2  0
 13 14  1  0
 14 15  2  0
 15 10  1  0
 16  8  1  0
 16 18  1  0
 17 16  2  0
 19 18  1  0
 19 25  1  0
 19 20  1  1
 21 20  1  0
 22 21  1  0
 23 24  1  0
 23 22  1  0
 25 26  1  0
 27 25  2  0
M  END
$$$$
