CFK.pdb
     RDKit          3D

 27 27  0  0  1  0  0  0  0  0999 V2000
   28.5920  -21.5786  -13.9027 N   0  0  0  0  0  0  0  0  0  0  0  0
   28.6726  -20.5299  -12.9210 C   0  0  1  0  0  0  0  0  0  0  0  0
   28.0288  -19.2412  -13.3744 C   0  0  0  0  0  0  0  0  0  0  0  0
   29.1058  -18.5416  -14.6718 S   0  0  0  0  0  0  0  0  0  0  0  0
   28.1775  -20.9978  -11.6185 C   0  0  0  0  0  0  0  0  0  0  0  0
   27.2147  -21.8100  -11.5046 O   0  0  0  0  0  0  0  0  0  0  0  0
   28.7846  -20.5362  -10.4362 N   0  0  0  0  0  0  0  0  0  0  0  0
   28.2026  -20.6552   -9.1098 C   0  0  1  0  0  0  0  0  0  0  0  0
   29.1638  -20.1325   -8.0639 C   0  0  0  0  0  0  0  0  0  0  0  0
   28.6019  -20.1252   -6.7038 C   0  0  0  0  0  0  0  0  0  0  0  0
   28.0044  -18.9743   -6.2119 C   0  0  0  0  0  0  0  0  0  0  0  0
   27.4636  -18.9059   -4.9515 C   0  0  0  0  0  0  0  0  0  0  0  0
   27.4963  -19.9992   -4.1156 C   0  0  0  0  0  0  0  0  0  0  0  0
   28.0871  -21.1518   -4.5897 C   0  0  0  0  0  0  0  0  0  0  0  0
   28.6378  -21.2196   -5.8748 C   0  0  0  0  0  0  0  0  0  0  0  0
   26.8932  -20.0255   -8.9922 C   0  0  0  0  0  0  0  0  0  0  0  0
   26.7720  -18.8052   -9.3492 O   0  0  0  0  0  0  0  0  0  0  0  0
   25.7220  -20.6516   -8.5135 N   0  0  0  0  0  0  0  0  0  0  0  0
   24.3842  -20.2028   -8.8503 C   0  0  1  0  0  0  0  0  0  0  0  0
   24.0066  -20.6785  -10.2577 C   0  0  0  0  0  0  0  0  0  0  0  0
   22.5822  -20.3203  -10.5733 C   0  0  0  0  0  0  0  0  0  0  0  0
   22.1951  -20.8327  -11.9269 C   0  0  0  0  0  0  0  0  0  0  0  0
   20.7935  -20.4635  -12.2581 C   0  0  0  0  0  0  0  0  0  0  0  0
   20.4451  -21.0173  -13.5634 N   0  0  0  0  0  0  0  0  0  0  0  0
   23.4220  -20.8499   -7.9313 C   0  0  0  0  0  0  0  0  0  0  0  0
   22.0930  -20.3833   -7.8737 O   0  0  0  0  0  0  0  0  0  0  0  0
   23.7204  -21.8117   -7.1808 O   0  0  0  0  0  0  0  0  0  0  0  0
  2  1  1  6
  2  3  1  0
  3  4  1  0
  5  6  2  0
  5  2  1  0
  7  5  1  0
  8  7  1  0
  8  9  1  1
 10  9  1  0
 11 10  2  0
 12 11  1  0
 13 12  2  0
 13 14  1  0
 14 15  2  0
 15 10  1  0
 16  8  1  0
 16 18  1  0
 17 16  2  0
 19 18  1  0
 19 25  1  0
 19 20  1  6
 21 20  1  0
 22 21  1  0
 23 24  1  0
 23 22  1  0
 25 26  1  0
 27 25  2  0
M  END
$$$$
