CFK.pdb
     RDKit          3D

 27 27  0  0  1  0  0  0  0  0999 V2000
   28.7671  -23.6604  -17.5417 N   0  0  0  0  0  0  0  0  0  0  0  0
   28.1073  -22.4146  -17.2543 C   0  0  1  0  0  0  0  0  0  0  0  0
   27.4469  -21.7991  -18.4650 C   0  0  0  0  0  0  0  0  0  0  0  0
   28.7834  -21.3596  -19.6283 S   0  0  0  0  0  0  0  0  0  0  0  0
   27.1971  -22.5602  -16.1093 C   0  0  0  0  0  0  0  0  0  0  0  0
   26.5794  -23.6352  -15.8594 O   0  0  0  0  0  0  0  0  0  0  0  0
   26.9893  -21.4718  -15.2422 N   0  0  0  0  0  0  0  0  0  0  0  0
   26.0823  -21.4839  -14.1068 C   0  0  1  0  0  0  0  0  0  0  0  0
   26.5559  -20.5160  -13.0439 C   0  0  0  0  0  0  0  0  0  0  0  0
   25.7290  -20.5322  -11.8268 C   0  0  0  0  0  0  0  0  0  0  0  0
   24.5349  -19.8273  -11.7962 C   0  0  0  0  0  0  0  0  0  0  0  0
   23.7214  -19.8037  -10.6901 C   0  0  0  0  0  0  0  0  0  0  0  0
   24.0696  -20.4927   -9.5503 C   0  0  0  0  0  0  0  0  0  0  0  0
   25.2543  -21.1989   -9.5643 C   0  0  0  0  0  0  0  0  0  0  0  0
   26.0822  -21.2217  -10.6928 C   0  0  0  0  0  0  0  0  0  0  0  0
   24.6928  -21.2368  -14.4715 C   0  0  0  0  0  0  0  0  0  0  0  0
   24.4279  -20.2236  -15.2027 O   0  0  0  0  0  0  0  0  0  0  0  0
   23.5902  -22.0300  -14.0867 N   0  0  0  0  0  0  0  0  0  0  0  0
   22.2186  -21.7092  -14.4333 C   0  0  1  0  0  0  0  0  0  0  0  0
   21.3750  -22.9880  -14.4869 C   0  0  0  0  0  0  0  0  0  0  0  0
   19.9505  -22.6681  -14.8411 C   0  0  0  0  0  0  0  0  0  0  0  0
   19.1486  -23.9242  -14.9947 C   0  0  0  0  0  0  0  0  0  0  0  0
   17.7300  -23.6173  -15.3174 C   0  0  0  0  0  0  0  0  0  0  0  0
   16.9491  -24.8504  -15.2767 N   0  0  0  0  0  0  0  0  0  0  0  0
   21.6371  -20.8844  -13.3514 C   0  0  0  0  0  0  0  0  0  0  0  0
   21.8424  -21.2550  -12.0068 O   0  0  0  0  0  0  0  0  0  0  0  0
   20.9556  -19.8500  -13.5588 O   0  0  0  0  0  0  0  0  0  0  0  0
  2  1  1  6
  2  3  1  0
  3  4  1  0
  5  6  2  0
  5  2  1  0
  7  5  1  0
  8  7  1  0
  8  9  1  1
 10  9  1  0
 11 10  2  0
 12 11  1  0
 13 12  2  0
 13 14  1  0
 14 15  2  0
 15 10  1  0
 16  8  1  0
 16 18  1  0
 17 16  2  0
 19 18  1  0
 19 25  1  0
 19 20  1  1
 21 20  1  0
 22 21  1  0
 23 24  1  0
 23 22  1  0
 25 26  1  0
 27 25  2  0
M  END
$$$$
