CFK.pdb
     RDKit          3D

 27 27  0  0  1  0  0  0  0  0999 V2000
   28.4906  -20.9321  -15.1243 N   0  0  0  0  0  0  0  0  0  0  0  0
   27.5289  -20.0163  -14.5707 C   0  0  1  0  0  0  0  0  0  0  0  0
   26.9953  -19.0313  -15.5835 C   0  0  0  0  0  0  0  0  0  0  0  0
   28.3590  -17.8804  -15.9691 S   0  0  0  0  0  0  0  0  0  0  0  0
   26.4700  -20.7433  -13.8561 C   0  0  0  0  0  0  0  0  0  0  0  0
   26.0086  -21.8498  -14.2591 O   0  0  0  0  0  0  0  0  0  0  0  0
   25.9325  -20.2049  -12.6726 N   0  0  0  0  0  0  0  0  0  0  0  0
   24.8868  -20.8323  -11.8820 C   0  0  1  0  0  0  0  0  0  0  0  0
   24.7918  -20.1783  -10.5203 C   0  0  0  0  0  0  0  0  0  0  0  0
   25.9922  -20.3738   -9.6918 C   0  0  0  0  0  0  0  0  0  0  0  0
   26.1101  -19.7056   -8.4822 C   0  0  0  0  0  0  0  0  0  0  0  0
   27.2058  -19.8466   -7.6664 C   0  0  0  0  0  0  0  0  0  0  0  0
   28.2461  -20.6724   -8.0281 C   0  0  0  0  0  0  0  0  0  0  0  0
   28.1444  -21.3442   -9.2284 C   0  0  0  0  0  0  0  0  0  0  0  0
   27.0267  -21.1993  -10.0586 C   0  0  0  0  0  0  0  0  0  0  0  0
   23.5920  -20.8607  -12.5509 C   0  0  0  0  0  0  0  0  0  0  0  0
   23.1875  -19.8002  -13.1365 O   0  0  0  0  0  0  0  0  0  0  0  0
   22.7266  -21.9742  -12.6157 N   0  0  0  0  0  0  0  0  0  0  0  0
   21.5153  -21.9963  -13.4137 C   0  0  1  0  0  0  0  0  0  0  0  0
   21.3149  -23.3853  -14.0304 C   0  0  0  0  0  0  0  0  0  0  0  0
   19.9355  -23.5126  -14.6115 C   0  0  0  0  0  0  0  0  0  0  0  0
   19.1063  -24.4632  -13.8031 C   0  0  0  0  0  0  0  0  0  0  0  0
   17.8023  -24.7319  -14.4648 C   0  0  0  0  0  0  0  0  0  0  0  0
   17.0299  -25.6629  -13.6470 N   0  0  0  0  0  0  0  0  0  0  0  0
   20.3559  -21.7775  -12.5210 C   0  0  0  0  0  0  0  0  0  0  0  0
   20.4863  -22.0209  -11.1385 O   0  0  0  0  0  0  0  0  0  0  0  0
   19.2356  -21.3792  -12.9254 O   0  0  0  0  0  0  0  0  0  0  0  0
  2  1  1  6
  2  3  1  0
  3  4  1  0
  5  6  2  0
  5  2  1  0
  7  5  1  0
  8  7  1  0
  8  9  1  1
 10  9  1  0
 11 10  2  0
 12 11  1  0
 13 12  2  0
 13 14  1  0
 14 15  2  0
 15 10  1  0
 16  8  1  0
 16 18  1  0
 17 16  2  0
 19 18  1  0
 19 25  1  0
 19 20  1  1
 21 20  1  0
 22 21  1  0
 23 24  1  0
 23 22  1  0
 25 26  1  0
 27 25  2  0
M  END
$$$$
