CFK.pdb
     RDKit          3D

 27 27  0  0  1  0  0  0  0  0999 V2000
   28.4170  -22.2618  -15.3334 N   0  0  0  0  0  0  0  0  0  0  0  0
   27.5464  -21.1490  -15.0614 C   0  0  1  0  0  0  0  0  0  0  0  0
   27.0790  -20.4415  -16.3111 C   0  0  0  0  0  0  0  0  0  0  0  0
   28.5483  -19.6478  -17.0487 S   0  0  0  0  0  0  0  0  0  0  0  0
   26.4434  -21.5553  -14.1789 C   0  0  0  0  0  0  0  0  0  0  0  0
   25.9527  -22.7209  -14.1899 O   0  0  0  0  0  0  0  0  0  0  0  0
   25.8953  -20.6255  -13.2764 N   0  0  0  0  0  0  0  0  0  0  0  0
   24.8119  -20.9142  -12.3516 C   0  0  1  0  0  0  0  0  0  0  0  0
   24.8656  -19.9736  -11.1671 C   0  0  0  0  0  0  0  0  0  0  0  0
   25.9382  -20.2950  -10.2122 C   0  0  0  0  0  0  0  0  0  0  0  0
   26.2178  -19.4220   -9.1714 C   0  0  0  0  0  0  0  0  0  0  0  0
   27.2064  -19.6665   -8.2501 C   0  0  0  0  0  0  0  0  0  0  0  0
   27.9696  -20.8094   -8.3291 C   0  0  0  0  0  0  0  0  0  0  0  0
   27.7043  -21.6882   -9.3586 C   0  0  0  0  0  0  0  0  0  0  0  0
   26.6961  -21.4372  -10.2968 C   0  0  0  0  0  0  0  0  0  0  0  0
   23.4962  -20.9066  -12.9789 C   0  0  0  0  0  0  0  0  0  0  0  0
   23.2635  -20.0436  -13.8913 O   0  0  0  0  0  0  0  0  0  0  0  0
   22.4342  -21.7832  -12.6681 N   0  0  0  0  0  0  0  0  0  0  0  0
   21.1562  -21.7611  -13.3542 C   0  0  1  0  0  0  0  0  0  0  0  0
   20.2761  -22.9181  -12.8679 C   0  0  0  0  0  0  0  0  0  0  0  0
   18.8667  -22.7550  -13.3617 C   0  0  0  0  0  0  0  0  0  0  0  0
   18.0197  -23.9157  -12.9374 C   0  0  0  0  0  0  0  0  0  0  0  0
   16.6264  -23.7719  -13.4359 C   0  0  0  0  0  0  0  0  0  0  0  0
   15.8213  -24.8864  -12.9440 N   0  0  0  0  0  0  0  0  0  0  0  0
   20.4397  -20.5215  -12.9812 C   0  0  0  0  0  0  0  0  0  0  0  0
   20.8823  -19.7678  -11.8750 O   0  0  0  0  0  0  0  0  0  0  0  0
   19.4380  -20.0868  -13.6017 O   0  0  0  0  0  0  0  0  0  0  0  0
  2  1  1  6
  2  3  1  0
  3  4  1  0
  5  6  2  0
  5  2  1  0
  7  5  1  0
  8  7  1  0
  8  9  1  1
 10  9  1  0
 11 10  2  0
 12 11  1  0
 13 12  2  0
 13 14  1  0
 14 15  2  0
 15 10  1  0
 16  8  1  0
 16 18  1  0
 17 16  2  0
 19 18  1  0
 19 25  1  0
 19 20  1  1
 21 20  1  0
 22 21  1  0
 23 24  1  0
 23 22  1  0
 25 26  1  0
 27 25  2  0
M  END
$$$$
