CFK.pdb
     RDKit          3D

 27 27  0  0  1  0  0  0  0  0999 V2000
   25.9484   -9.8946  -20.7261 N   0  0  0  0  0  0  0  0  0  0  0  0
   25.4737   -8.7688  -19.9663 C   0  0  1  0  0  0  0  0  0  0  0  0
   24.6569   -7.7998  -20.7878 C   0  0  0  0  0  0  0  0  0  0  0  0
   23.1245   -8.6714  -21.2616 S   0  0  0  0  0  0  0  0  0  0  0  0
   24.7864   -9.2171  -18.7468 C   0  0  0  0  0  0  0  0  0  0  0  0
   24.0530  -10.2470  -18.7147 O   0  0  0  0  0  0  0  0  0  0  0  0
   24.9363   -8.4857  -17.5543 N   0  0  0  0  0  0  0  0  0  0  0  0
   24.3413   -8.8546  -16.2807 C   0  0  1  0  0  0  0  0  0  0  0  0
   25.4128   -9.0027  -15.2219 C   0  0  0  0  0  0  0  0  0  0  0  0
   26.2436  -10.2050  -15.3938 C   0  0  0  0  0  0  0  0  0  0  0  0
   27.4821  -10.1038  -16.0098 C   0  0  0  0  0  0  0  0  0  0  0  0
   28.3016  -11.1893  -16.1995 C   0  0  0  0  0  0  0  0  0  0  0  0
   27.9147  -12.4408  -15.7762 C   0  0  0  0  0  0  0  0  0  0  0  0
   26.6856  -12.5586  -15.1615 C   0  0  0  0  0  0  0  0  0  0  0  0
   25.8517  -11.4509  -14.9691 C   0  0  0  0  0  0  0  0  0  0  0  0
   23.2868   -7.9459  -15.8481 C   0  0  0  0  0  0  0  0  0  0  0  0
   23.3091   -6.7426  -16.2754 O   0  0  0  0  0  0  0  0  0  0  0  0
   22.2199   -8.2789  -14.9857 N   0  0  0  0  0  0  0  0  0  0  0  0
   21.1011   -7.3933  -14.7239 C   0  0  1  0  0  0  0  0  0  0  0  0
   20.2819   -7.1857  -16.0029 C   0  0  0  0  0  0  0  0  0  0  0  0
   19.1740   -6.1989  -15.7676 C   0  0  0  0  0  0  0  0  0  0  0  0
   18.4372   -5.9168  -17.0414 C   0  0  0  0  0  0  0  0  0  0  0  0
   17.3779   -4.8949  -16.8317 C   0  0  0  0  0  0  0  0  0  0  0  0
   16.6995   -4.6373  -18.0988 N   0  0  0  0  0  0  0  0  0  0  0  0
   20.1908   -8.0519  -13.7613 C   0  0  0  0  0  0  0  0  0  0  0  0
   19.3819   -7.2639  -12.9174 O   0  0  0  0  0  0  0  0  0  0  0  0
   20.0898   -9.2983  -13.6447 O   0  0  0  0  0  0  0  0  0  0  0  0
  2  1  1  6
  2  3  1  0
  3  4  1  0
  5  6  2  0
  5  2  1  0
  7  5  1  0
  8  7  1  0
  8  9  1  1
 10  9  1  0
 11 10  2  0
 12 11  1  0
 13 12  2  0
 13 14  1  0
 14 15  2  0
 15 10  1  0
 16  8  1  0
 16 18  1  0
 17 16  2  0
 19 18  1  0
 19 25  1  0
 19 20  1  6
 21 20  1  0
 22 21  1  0
 23 24  1  0
 23 22  1  0
 25 26  1  0
 27 25  2  0
M  END
$$$$
