CFK.pdb
     RDKit          3D

 27 27  0  0  1  0  0  0  0  0999 V2000
   22.2295  -11.8352  -19.7412 N   0  0  0  0  0  0  0  0  0  0  0  0
   21.2287  -10.8087  -19.6198 C   0  0  1  0  0  0  0  0  0  0  0  0
   19.9145  -11.1813  -20.2639 C   0  0  0  0  0  0  0  0  0  0  0  0
   18.8213   -9.7272  -20.1112 S   0  0  0  0  0  0  0  0  0  0  0  0
   21.0876  -10.3830  -18.2200 C   0  0  0  0  0  0  0  0  0  0  0  0
   20.9566  -11.2029  -17.2659 O   0  0  0  0  0  0  0  0  0  0  0  0
   21.0958   -9.0118  -17.9050 N   0  0  0  0  0  0  0  0  0  0  0  0
   20.9155   -8.4719  -16.5678 C   0  0  1  0  0  0  0  0  0  0  0  0
   22.2577   -8.1802  -15.9320 C   0  0  0  0  0  0  0  0  0  0  0  0
   22.1551   -7.6697  -14.5556 C   0  0  0  0  0  0  0  0  0  0  0  0
   22.0865   -6.3027  -14.3316 C   0  0  0  0  0  0  0  0  0  0  0  0
   21.9907   -5.7666  -13.0710 C   0  0  0  0  0  0  0  0  0  0  0  0
   21.9586   -6.5836  -11.9635 C   0  0  0  0  0  0  0  0  0  0  0  0
   22.0258   -7.9458  -12.1691 C   0  0  0  0  0  0  0  0  0  0  0  0
   22.1236   -8.4904  -13.4549 C   0  0  0  0  0  0  0  0  0  0  0  0
   20.0413   -7.3062  -16.5258 C   0  0  0  0  0  0  0  0  0  0  0  0
   20.3482   -6.2911  -17.2375 O   0  0  0  0  0  0  0  0  0  0  0  0
   18.8617   -7.1927  -15.7586 N   0  0  0  0  0  0  0  0  0  0  0  0
   18.1169   -5.9555  -15.6209 C   0  0  1  0  0  0  0  0  0  0  0  0
   16.7869   -6.2170  -14.9050 C   0  0  0  0  0  0  0  0  0  0  0  0
   16.2017   -7.5309  -15.3386 C   0  0  0  0  0  0  0  0  0  0  0  0
   14.8947   -7.7810  -14.6503 C   0  0  0  0  0  0  0  0  0  0  0  0
   14.2867   -9.0595  -15.1046 C   0  0  0  0  0  0  0  0  0  0  0  0
   13.0156   -9.2604  -14.4147 N   0  0  0  0  0  0  0  0  0  0  0  0
   18.8777   -5.0399  -14.7421 C   0  0  0  0  0  0  0  0  0  0  0  0
   18.4433   -3.7084  -14.5816 O   0  0  0  0  0  0  0  0  0  0  0  0
   19.9107   -5.3810  -14.1147 O   0  0  0  0  0  0  0  0  0  0  0  0
  2  1  1  1
  2  3  1  0
  3  4  1  0
  5  6  2  0
  5  2  1  0
  7  5  1  0
  8  7  1  0
  8  9  1  6
 10  9  1  0
 11 10  2  0
 12 11  1  0
 13 12  2  0
 13 14  1  0
 14 15  2  0
 15 10  1  0
 16  8  1  0
 16 18  1  0
 17 16  2  0
 19 18  1  0
 19 25  1  0
 19 20  1  1
 21 20  1  0
 22 21  1  0
 23 24  1  0
 23 22  1  0
 25 26  1  0
 27 25  2  0
M  END
$$$$
