CFK.pdb
     RDKit          3D

 27 27  0  0  1  0  0  0  0  0999 V2000
   15.3799  -12.0123  -11.8512 N   0  0  0  0  0  0  0  0  0  0  0  0
   15.2235  -11.0221  -12.8833 C   0  0  1  0  0  0  0  0  0  0  0  0
   13.7827  -10.6394  -13.1255 C   0  0  0  0  0  0  0  0  0  0  0  0
   12.8312  -12.1950  -13.2118 S   0  0  0  0  0  0  0  0  0  0  0  0
   16.0954   -9.8660  -12.6311 C   0  0  0  0  0  0  0  0  0  0  0  0
   15.9546   -9.1094  -11.6273 O   0  0  0  0  0  0  0  0  0  0  0  0
   17.1362   -9.5696  -13.5302 N   0  0  0  0  0  0  0  0  0  0  0  0
   17.9748   -8.3848  -13.4590 C   0  0  1  0  0  0  0  0  0  0  0  0
   19.3674   -8.6939  -13.9651 C   0  0  0  0  0  0  0  0  0  0  0  0
   20.2600   -7.5240  -13.9747 C   0  0  0  0  0  0  0  0  0  0  0  0
   20.8557   -7.1028  -12.7952 C   0  0  0  0  0  0  0  0  0  0  0  0
   21.6966   -6.0185  -12.7407 C   0  0  0  0  0  0  0  0  0  0  0  0
   21.9833   -5.2973  -13.8777 C   0  0  0  0  0  0  0  0  0  0  0  0
   21.3987   -5.7031  -15.0593 C   0  0  0  0  0  0  0  0  0  0  0  0
   20.5419   -6.8087  -15.1127 C   0  0  0  0  0  0  0  0  0  0  0  0
   17.4048   -7.2289  -14.1399 C   0  0  0  0  0  0  0  0  0  0  0  0
   16.9433   -7.3860  -15.3203 O   0  0  0  0  0  0  0  0  0  0  0  0
   17.3107   -5.9259  -13.6049 N   0  0  0  0  0  0  0  0  0  0  0  0
   16.7538   -4.8030  -14.3354 C   0  0  1  0  0  0  0  0  0  0  0  0
   15.8837   -3.9485  -13.4067 C   0  0  0  0  0  0  0  0  0  0  0  0
   15.4076   -2.7128  -14.1159 C   0  0  0  0  0  0  0  0  0  0  0  0
   13.9222   -2.5669  -13.9855 C   0  0  0  0  0  0  0  0  0  0  0  0
   13.4374   -1.3612  -14.7079 C   0  0  0  0  0  0  0  0  0  0  0  0
   11.9826   -1.2907  -14.6054 N   0  0  0  0  0  0  0  0  0  0  0  0
   17.8622   -3.9264  -14.7735 C   0  0  0  0  0  0  0  0  0  0  0  0
   17.7777   -3.2660  -16.0162 O   0  0  0  0  0  0  0  0  0  0  0  0
   18.8989   -3.7278  -14.0930 O   0  0  0  0  0  0  0  0  0  0  0  0
  2  1  1  1
  2  3  1  0
  3  4  1  0
  5  6  2  0
  5  2  1  0
  7  5  1  0
  8  7  1  0
  8  9  1  6
 10  9  1  0
 11 10  2  0
 12 11  1  0
 13 12  2  0
 13 14  1  0
 14 15  2  0
 15 10  1  0
 16  8  1  0
 16 18  1  0
 17 16  2  0
 19 18  1  0
 19 25  1  0
 19 20  1  1
 21 20  1  0
 22 21  1  0
 23 24  1  0
 23 22  1  0
 25 26  1  0
 27 25  2  0
M  END
$$$$
