CFK.pdb
     RDKit          3D

 27 27  0  0  1  0  0  0  0  0999 V2000
   19.5323   -4.3817  -15.3302 N   0  0  0  0  0  0  0  0  0  0  0  0
   19.5835   -5.8178  -15.4017 C   0  0  1  0  0  0  0  0  0  0  0  0
   18.3860   -6.4209  -16.0968 C   0  0  0  0  0  0  0  0  0  0  0  0
   16.9662   -6.2253  -14.9661 S   0  0  0  0  0  0  0  0  0  0  0  0
   20.8658   -6.2649  -15.9642 C   0  0  0  0  0  0  0  0  0  0  0  0
   21.4276   -5.6803  -16.9349 O   0  0  0  0  0  0  0  0  0  0  0  0
   21.5129   -7.3875  -15.4160 N   0  0  0  0  0  0  0  0  0  0  0  0
   22.7687   -7.9342  -15.9021 C   0  0  1  0  0  0  0  0  0  0  0  0
   23.5560   -8.5410  -14.7606 C   0  0  0  0  0  0  0  0  0  0  0  0
   24.7517   -9.2775  -15.2004 C   0  0  0  0  0  0  0  0  0  0  0  0
   25.7241   -8.6287  -15.9467 C   0  0  0  0  0  0  0  0  0  0  0  0
   26.8604   -9.2624  -16.3862 C   0  0  0  0  0  0  0  0  0  0  0  0
   27.0782  -10.5903  -16.0956 C   0  0  0  0  0  0  0  0  0  0  0  0
   26.1205  -11.2501  -15.3541 C   0  0  0  0  0  0  0  0  0  0  0  0
   24.9629  -10.6025  -14.9070 C   0  0  0  0  0  0  0  0  0  0  0  0
   22.6038   -8.8808  -16.9982 C   0  0  0  0  0  0  0  0  0  0  0  0
   21.8717   -9.9097  -16.8069 O   0  0  0  0  0  0  0  0  0  0  0  0
   23.1872   -8.7633  -18.2783 N   0  0  0  0  0  0  0  0  0  0  0  0
   23.0384   -9.7653  -19.3167 C   0  0  1  0  0  0  0  0  0  0  0  0
   23.1252   -9.1094  -20.6994 C   0  0  0  0  0  0  0  0  0  0  0  0
   23.0676  -10.1484  -21.7828 C   0  0  0  0  0  0  0  0  0  0  0  0
   21.6816  -10.7025  -21.9114 C   0  0  0  0  0  0  0  0  0  0  0  0
   21.5757  -11.6129  -23.0821 C   0  0  0  0  0  0  0  0  0  0  0  0
   20.2140  -12.1331  -23.1663 N   0  0  0  0  0  0  0  0  0  0  0  0
   24.1815  -10.7014  -19.2389 C   0  0  0  0  0  0  0  0  0  0  0  0
   25.3515  -10.3158  -18.5536 O   0  0  0  0  0  0  0  0  0  0  0  0
   24.1765  -11.8455  -19.7569 O   0  0  0  0  0  0  0  0  0  0  0  0
  2  1  1  6
  2  3  1  0
  3  4  1  0
  5  6  2  0
  5  2  1  0
  7  5  1  0
  8  7  1  0
  8  9  1  1
 10  9  1  0
 11 10  2  0
 12 11  1  0
 13 12  2  0
 13 14  1  0
 14 15  2  0
 15 10  1  0
 16  8  1  0
 16 18  1  0
 17 16  2  0
 19 18  1  0
 19 25  1  0
 19 20  1  6
 21 20  1  0
 22 21  1  0
 23 24  1  0
 23 22  1  0
 25 26  1  0
 27 25  2  0
M  END
$$$$
