KHS.pdb
     RDKit          3D

 26 26  0  0  1  0  0  0  0  0999 V2000
    9.6620  -18.5866   17.3426 N   0  0  0  0  0  0  0  0  0  0  0  0
   10.7338  -17.6460   17.0941 C   0  0  1  0  0  0  0  0  0  0  0  0
   10.3684  -16.8241   15.8954 C   0  0  0  0  0  0  0  0  0  0  0  0
    9.0740  -17.2788   15.2591 C   0  0  0  0  0  0  0  0  0  0  0  0
    8.6571  -16.3571   14.1319 C   0  0  0  0  0  0  0  0  0  0  0  0
    7.2983  -16.7306   13.5854 C   0  0  0  0  0  0  0  0  0  0  0  0
    6.8816  -15.8733   12.4991 N   0  0  0  0  0  0  0  0  0  0  0  0
   10.9690  -16.8206   18.3052 C   0  0  0  0  0  0  0  0  0  0  0  0
   11.8812  -15.9397   18.3361 O   0  0  0  0  0  0  0  0  0  0  0  0
   10.1938  -16.9899   19.4443 N   0  0  0  0  0  0  0  0  0  0  0  0
   10.3607  -16.1896   20.6961 C   0  0  1  0  0  0  0  0  0  0  0  0
    8.9289  -15.8137   20.9999 C   0  0  0  0  0  0  0  0  0  0  0  0
    8.3429  -14.6891   20.3081 C   0  0  0  0  0  0  0  0  0  0  0  0
    9.1021  -13.8951   19.4247 C   0  0  0  0  0  0  0  0  0  0  0  0
    8.3018  -12.9503   18.9468 N   0  0  0  0  0  0  0  0  0  0  0  0
    7.0836  -13.1279   19.4973 C   0  0  0  0  0  0  0  0  0  0  0  0
    7.1298  -14.1816   20.3151 N   0  0  0  0  0  0  0  0  0  0  0  0
   10.8806  -17.0634   21.7366 C   0  0  0  0  0  0  0  0  0  0  0  0
   10.4320  -18.2363   21.8394 O   0  0  0  0  0  0  0  0  0  0  0  0
   14.4117  -16.3506   23.4585 O   0  0  0  0  0  0  0  0  0  0  0  0
   13.8952  -17.6421   23.4643 C   0  0  0  0  0  0  0  0  0  0  0  0
   12.3783  -17.6107   23.6205 C   0  0  2  0  0  0  0  0  0  0  0  0
   11.8760  -16.6513   22.6334 N   0  0  0  0  0  0  0  0  0  0  0  0
   12.0680  -17.1523   24.9766 C   0  0  0  0  0  0  0  0  0  0  0  0
   12.4320  -17.8610   26.1121 O   0  0  0  0  0  0  0  0  0  0  0  0
   11.4467  -16.0756   25.1622 O   0  0  0  0  0  0  0  0  0  0  0  0
  2  1  1  1
  3  2  1  0
  4  5  1  0
  4  3  1  0
  5  6  1  0
  6  7  1  0
  8  2  1  0
  8  9  2  0
 10  8  1  0
 11 12  1  1
 11 10  1  0
 13 17  1  0
 13 12  1  0
 14 13  2  0
 15 14  1  0
 15 16  1  0
 16 17  2  0
 18 11  1  0
 19 18  2  0
 21 20  1  0
 22 21  1  1
 22 23  1  0
 23 18  1  0
 24 22  1  0
 24 25  1  0
 26 24  2  0
M  END
$$$$
