KHS.pdb
     RDKit          3D

 26 26  0  0  1  0  0  0  0  0999 V2000
   14.3483  -15.7331   13.9775 N   0  0  0  0  0  0  0  0  0  0  0  0
   12.9787  -15.9754   14.3785 C   0  0  1  0  0  0  0  0  0  0  0  0
   12.7396  -17.4547   14.3621 C   0  0  0  0  0  0  0  0  0  0  0  0
   12.7316  -18.0205   12.9597 C   0  0  0  0  0  0  0  0  0  0  0  0
   12.4801  -19.5141   12.9663 C   0  0  0  0  0  0  0  0  0  0  0  0
   12.5019  -20.0852   11.5670 C   0  0  0  0  0  0  0  0  0  0  0  0
   12.4357  -21.5289   11.5553 N   0  0  0  0  0  0  0  0  0  0  0  0
   12.7304  -15.3692   15.7106 C   0  0  0  0  0  0  0  0  0  0  0  0
   13.6883  -15.0346   16.4719 O   0  0  0  0  0  0  0  0  0  0  0  0
   11.4367  -15.1501   16.1636 N   0  0  0  0  0  0  0  0  0  0  0  0
   11.1058  -14.4617   17.4489 C   0  0  1  0  0  0  0  0  0  0  0  0
    9.6132  -14.2724   17.3074 C   0  0  0  0  0  0  0  0  0  0  0  0
    8.8758  -13.7052   18.4124 C   0  0  0  0  0  0  0  0  0  0  0  0
    9.5156  -13.3579   19.6196 C   0  0  0  0  0  0  0  0  0  0  0  0
    8.5914  -12.8670   20.4360 N   0  0  0  0  0  0  0  0  0  0  0  0
    7.4112  -12.8969   19.7843 C   0  0  0  0  0  0  0  0  0  0  0  0
    7.6046  -13.4058   18.5659 N   0  0  0  0  0  0  0  0  0  0  0  0
   11.3934  -15.3714   18.5471 C   0  0  0  0  0  0  0  0  0  0  0  0
   11.0607  -16.5827   18.4490 O   0  0  0  0  0  0  0  0  0  0  0  0
   14.1843  -14.5660   21.3062 O   0  0  0  0  0  0  0  0  0  0  0  0
   13.7801  -15.8780   21.0825 C   0  0  0  0  0  0  0  0  0  0  0  0
   12.2865  -15.9331   20.7784 C   0  0  2  0  0  0  0  0  0  0  0  0
   12.0392  -14.9520   19.7184 N   0  0  0  0  0  0  0  0  0  0  0  0
   11.5587  -15.5608   21.9938 C   0  0  0  0  0  0  0  0  0  0  0  0
   11.5769  -16.3309   23.1473 O   0  0  0  0  0  0  0  0  0  0  0  0
   10.8767  -14.5058   22.0340 O   0  0  0  0  0  0  0  0  0  0  0  0
  2  1  1  1
  3  2  1  0
  4  5  1  0
  4  3  1  0
  5  6  1  0
  6  7  1  0
  8  2  1  0
  8  9  2  0
 10  8  1  0
 11 12  1  6
 11 10  1  0
 13 17  1  0
 13 12  1  0
 14 13  2  0
 15 14  1  0
 15 16  1  0
 16 17  2  0
 18 11  1  0
 19 18  2  0
 21 20  1  0
 22 21  1  1
 22 23  1  0
 23 18  1  0
 24 22  1  0
 24 25  1  0
 26 24  2  0
M  END
$$$$
