KHS.pdb
     RDKit          3D

 26 26  0  0  1  0  0  0  0  0999 V2000
   15.3211  -16.1009   13.4419 N   0  0  0  0  0  0  0  0  0  0  0  0
   16.4554  -16.7409   14.0737 C   0  0  1  0  0  0  0  0  0  0  0  0
   17.4226  -15.6752   14.4920 C   0  0  0  0  0  0  0  0  0  0  0  0
   16.8605  -14.7812   15.5746 C   0  0  0  0  0  0  0  0  0  0  0  0
   17.8749  -13.7499   16.0234 C   0  0  0  0  0  0  0  0  0  0  0  0
   17.3310  -12.8879   17.1396 C   0  0  0  0  0  0  0  0  0  0  0  0
   18.2431  -11.8343   17.5224 N   0  0  0  0  0  0  0  0  0  0  0  0
   15.9927  -17.5740   15.2119 C   0  0  0  0  0  0  0  0  0  0  0  0
   14.8200  -17.4569   15.6811 O   0  0  0  0  0  0  0  0  0  0  0  0
   16.8342  -18.5093   15.7984 N   0  0  0  0  0  0  0  0  0  0  0  0
   16.4060  -19.4688   16.8622 C   0  0  1  0  0  0  0  0  0  0  0  0
   17.5536  -20.4520   16.8530 C   0  0  0  0  0  0  0  0  0  0  0  0
   17.4405  -21.6461   16.0481 C   0  0  0  0  0  0  0  0  0  0  0  0
   16.2352  -21.9808   15.3981 C   0  0  0  0  0  0  0  0  0  0  0  0
   16.4356  -23.1175   14.7429 N   0  0  0  0  0  0  0  0  0  0  0  0
   17.7111  -23.4971   14.9613 C   0  0  0  0  0  0  0  0  0  0  0  0
   18.2996  -22.5962   15.7507 N   0  0  0  0  0  0  0  0  0  0  0  0
   16.3633  -18.7607   18.1323 C   0  0  0  0  0  0  0  0  0  0  0  0
   17.0626  -17.7238   18.2852 O   0  0  0  0  0  0  0  0  0  0  0  0
   13.1290  -18.1167   20.2763 O   0  0  0  0  0  0  0  0  0  0  0  0
   14.1547  -18.6321   21.0618 C   0  0  0  0  0  0  0  0  0  0  0  0
   15.5097  -18.3658   20.4142 C   0  0  2  0  0  0  0  0  0  0  0  0
   15.5615  -19.1855   19.2008 N   0  0  0  0  0  0  0  0  0  0  0  0
   16.5544  -18.7824   21.3526 C   0  0  0  0  0  0  0  0  0  0  0  0
   16.7936  -18.1272   22.5516 O   0  0  0  0  0  0  0  0  0  0  0  0
   17.2871  -19.7712   21.0974 O   0  0  0  0  0  0  0  0  0  0  0  0
  2  1  1  1
  3  2  1  0
  4  5  1  0
  4  3  1  0
  5  6  1  0
  6  7  1  0
  8  2  1  0
  8  9  2  0
 10  8  1  0
 11 12  1  1
 11 10  1  0
 13 17  1  0
 13 12  1  0
 14 13  2  0
 15 14  1  0
 15 16  1  0
 16 17  2  0
 18 11  1  0
 19 18  2  0
 21 20  1  0
 22 21  1  1
 22 23  1  0
 23 18  1  0
 24 22  1  0
 24 25  1  0
 26 24  2  0
M  END
$$$$
