KHS.pdb
     RDKit          3D

 26 26  0  0  1  0  0  0  0  0999 V2000
    8.7649  -18.8896   17.3566 N   0  0  0  0  0  0  0  0  0  0  0  0
    8.3192  -18.7595   18.7276 C   0  0  1  0  0  0  0  0  0  0  0  0
    8.2729  -20.1274   19.3379 C   0  0  0  0  0  0  0  0  0  0  0  0
    8.7686  -21.1970   18.3906 C   0  0  0  0  0  0  0  0  0  0  0  0
    8.7705  -22.5615   19.0478 C   0  0  0  0  0  0  0  0  0  0  0  0
    9.3854  -23.6085   18.1476 C   0  0  0  0  0  0  0  0  0  0  0  0
    9.5649  -24.8782   18.8143 N   0  0  0  0  0  0  0  0  0  0  0  0
    9.2177  -17.8340   19.4624 C   0  0  0  0  0  0  0  0  0  0  0  0
   10.4067  -17.6223   19.0743 O   0  0  0  0  0  0  0  0  0  0  0  0
    8.7805  -17.1707   20.6007 N   0  0  0  0  0  0  0  0  0  0  0  0
    9.6059  -16.1839   21.3626 C   0  0  1  0  0  0  0  0  0  0  0  0
    8.5636  -15.1583   21.7438 C   0  0  0  0  0  0  0  0  0  0  0  0
    8.1784  -14.1626   20.7706 C   0  0  0  0  0  0  0  0  0  0  0  0
    8.7998  -14.0933   19.5072 C   0  0  0  0  0  0  0  0  0  0  0  0
    8.2414  -13.0906   18.8406 N   0  0  0  0  0  0  0  0  0  0  0  0
    7.3038  -12.5399   19.6382 C   0  0  0  0  0  0  0  0  0  0  0  0
    7.2819  -13.2010   20.7973 N   0  0  0  0  0  0  0  0  0  0  0  0
   10.1241  -16.8380   22.5542 C   0  0  0  0  0  0  0  0  0  0  0  0
    9.3284  -17.4398   23.3239 O   0  0  0  0  0  0  0  0  0  0  0  0
   13.3641  -18.6400   22.4831 O   0  0  0  0  0  0  0  0  0  0  0  0
   12.5439  -18.8666   23.5834 C   0  0  0  0  0  0  0  0  0  0  0  0
   11.9318  -17.5580   24.0726 C   0  0  2  0  0  0  0  0  0  0  0  0
   11.4876  -16.8324   22.8796 N   0  0  0  0  0  0  0  0  0  0  0  0
   12.9729  -16.7989   24.7694 C   0  0  0  0  0  0  0  0  0  0  0  0
   13.5072  -17.1968   25.9861 O   0  0  0  0  0  0  0  0  0  0  0  0
   13.4285  -15.7361   24.2770 O   0  0  0  0  0  0  0  0  0  0  0  0
  2  1  1  6
  3  2  1  0
  4  5  1  0
  4  3  1  0
  5  6  1  0
  6  7  1  0
  8  2  1  0
  8  9  2  0
 10  8  1  0
 11 12  1  1
 11 10  1  0
 13 17  1  0
 13 12  1  0
 14 13  2  0
 15 14  1  0
 15 16  1  0
 16 17  2  0
 18 11  1  0
 19 18  2  0
 21 20  1  0
 22 21  1  6
 22 23  1  0
 23 18  1  0
 24 22  1  0
 24 25  1  0
 26 24  2  0
M  END
$$$$
