KHS.pdb
     RDKit          3D

 26 26  0  0  1  0  0  0  0  0999 V2000
    7.6842  -15.7862   20.5720 N   0  0  0  0  0  0  0  0  0  0  0  0
    8.5139  -14.6360   20.8617 C   0  0  1  0  0  0  0  0  0  0  0  0
    7.7988  -13.4090   20.3834 C   0  0  0  0  0  0  0  0  0  0  0  0
    8.3790  -12.8707   19.0947 C   0  0  0  0  0  0  0  0  0  0  0  0
    8.1102  -13.8049   17.9333 C   0  0  0  0  0  0  0  0  0  0  0  0
    8.7589  -13.3080   16.6618 C   0  0  0  0  0  0  0  0  0  0  0  0
    8.3965  -14.0987   15.5076 N   0  0  0  0  0  0  0  0  0  0  0  0
    8.8215  -14.5911   22.3133 C   0  0  0  0  0  0  0  0  0  0  0  0
    9.5989  -13.7126   22.7959 O   0  0  0  0  0  0  0  0  0  0  0  0
    8.2648  -15.5138   23.1883 N   0  0  0  0  0  0  0  0  0  0  0  0
    8.6285  -15.6199   24.6346 C   0  0  1  0  0  0  0  0  0  0  0  0
    7.2944  -15.3593   25.2949 C   0  0  0  0  0  0  0  0  0  0  0  0
    6.9657  -14.0096   25.6910 C   0  0  0  0  0  0  0  0  0  0  0  0
    7.9190  -12.9733   25.6248 C   0  0  0  0  0  0  0  0  0  0  0  0
    7.3317  -11.8609   26.0481 N   0  0  0  0  0  0  0  0  0  0  0  0
    6.0589  -12.1672   26.3720 C   0  0  0  0  0  0  0  0  0  0  0  0
    5.8587  -13.4677   26.1493 N   0  0  0  0  0  0  0  0  0  0  0  0
    9.0623  -16.9823   24.9028 C   0  0  0  0  0  0  0  0  0  0  0  0
    8.2529  -17.9329   24.7335 O   0  0  0  0  0  0  0  0  0  0  0  0
   12.9546  -17.9032   25.2825 O   0  0  0  0  0  0  0  0  0  0  0  0
   12.0675  -18.9214   24.9497 C   0  0  0  0  0  0  0  0  0  0  0  0
   10.7096  -18.6821   25.6019 C   0  0  2  0  0  0  0  0  0  0  0  0
   10.3601  -17.2837   25.3388 N   0  0  0  0  0  0  0  0  0  0  0  0
   10.8485  -18.9077   27.0425 C   0  0  0  0  0  0  0  0  0  0  0  0
   11.2219  -20.1308   27.5800 O   0  0  0  0  0  0  0  0  0  0  0  0
   10.6290  -17.9788   27.8602 O   0  0  0  0  0  0  0  0  0  0  0  0
  2  1  1  1
  3  2  1  0
  4  5  1  0
  4  3  1  0
  5  6  1  0
  6  7  1  0
  8  2  1  0
  8  9  2  0
 10  8  1  0
 11 12  1  1
 11 10  1  0
 13 17  1  0
 13 12  1  0
 14 13  2  0
 15 14  1  0
 15 16  1  0
 16 17  2  0
 18 11  1  0
 19 18  2  0
 21 20  1  0
 22 21  1  6
 22 23  1  0
 23 18  1  0
 24 22  1  0
 24 25  1  0
 26 24  2  0
M  END
$$$$
