KHS.pdb
     RDKit          3D

 26 26  0  0  1  0  0  0  0  0999 V2000
   10.0456  -18.6508   16.9966 N   0  0  0  0  0  0  0  0  0  0  0  0
    9.4603  -18.3082   18.2754 C   0  0  1  0  0  0  0  0  0  0  0  0
    8.5187  -19.4053   18.6697 C   0  0  0  0  0  0  0  0  0  0  0  0
    7.6406  -19.8500   17.5214 C   0  0  0  0  0  0  0  0  0  0  0  0
    6.3042  -19.1375   17.5378 C   0  0  0  0  0  0  0  0  0  0  0  0
    5.4512  -19.5336   16.3546 C   0  0  0  0  0  0  0  0  0  0  0  0
    4.1808  -18.8451   16.3304 N   0  0  0  0  0  0  0  0  0  0  0  0
   10.5340  -18.0869   19.2764 C   0  0  0  0  0  0  0  0  0  0  0  0
   11.0318  -19.0509   19.9337 O   0  0  0  0  0  0  0  0  0  0  0  0
   11.0263  -16.8127   19.5231 N   0  0  0  0  0  0  0  0  0  0  0  0
   12.1802  -16.5227   20.4286 C   0  0  1  0  0  0  0  0  0  0  0  0
   12.9544  -15.5170   19.6083 C   0  0  0  0  0  0  0  0  0  0  0  0
   13.8964  -15.9987   18.6247 C   0  0  0  0  0  0  0  0  0  0  0  0
   14.4637  -17.2856   18.7214 C   0  0  0  0  0  0  0  0  0  0  0  0
   15.2806  -17.4420   17.6872 N   0  0  0  0  0  0  0  0  0  0  0  0
   15.2409  -16.3081   16.9583 C   0  0  0  0  0  0  0  0  0  0  0  0
   14.4003  -15.4507   17.5408 N   0  0  0  0  0  0  0  0  0  0  0  0
   11.6710  -15.8960   21.6388 C   0  0  0  0  0  0  0  0  0  0  0  0
   11.1099  -14.7704   21.5623 O   0  0  0  0  0  0  0  0  0  0  0  0
    9.1251  -16.9487   23.8549 O   0  0  0  0  0  0  0  0  0  0  0  0
    9.7206  -15.6919   23.8332 C   0  0  0  0  0  0  0  0  0  0  0  0
   11.2238  -15.8082   24.0644 C   0  0  2  0  0  0  0  0  0  0  0  0
   11.7736  -16.5037   22.8978 N   0  0  0  0  0  0  0  0  0  0  0  0
   11.4395  -16.6022   25.2763 C   0  0  0  0  0  0  0  0  0  0  0  0
   11.1432  -16.1312   26.5469 O   0  0  0  0  0  0  0  0  0  0  0  0
   11.9116  -17.7648   25.2045 O   0  0  0  0  0  0  0  0  0  0  0  0
  2  1  1  6
  3  2  1  0
  4  5  1  0
  4  3  1  0
  5  6  1  0
  6  7  1  0
  8  2  1  0
  8  9  2  0
 10  8  1  0
 11 12  1  6
 11 10  1  0
 13 17  1  0
 13 12  1  0
 14 13  2  0
 15 14  1  0
 15 16  1  0
 16 17  2  0
 18 11  1  0
 19 18  2  0
 21 20  1  0
 22 21  1  6
 22 23  1  0
 23 18  1  0
 24 22  1  0
 24 25  1  0
 26 24  2  0
M  END
$$$$
