KHS.pdb
     RDKit          3D

 26 26  0  0  1  0  0  0  0  0999 V2000
    7.5322  -12.8436   19.9390 N   0  0  0  0  0  0  0  0  0  0  0  0
    7.8407  -14.2100   20.3038 C   0  0  1  0  0  0  0  0  0  0  0  0
    8.7299  -14.7890   19.2455 C   0  0  0  0  0  0  0  0  0  0  0  0
    7.9859  -15.7222   18.3166 C   0  0  0  0  0  0  0  0  0  0  0  0
    8.9406  -16.5408   17.4725 C   0  0  0  0  0  0  0  0  0  0  0  0
    8.2075  -17.5881   16.6660 C   0  0  0  0  0  0  0  0  0  0  0  0
    9.1005  -18.4133   15.8849 N   0  0  0  0  0  0  0  0  0  0  0  0
    8.4591  -14.2425   21.6530 C   0  0  0  0  0  0  0  0  0  0  0  0
    9.3421  -13.3982   21.9943 O   0  0  0  0  0  0  0  0  0  0  0  0
    8.0871  -15.2025   22.5841 N   0  0  0  0  0  0  0  0  0  0  0  0
    8.5867  -15.2391   23.9928 C   0  0  1  0  0  0  0  0  0  0  0  0
    7.2982  -15.0869   24.7677 C   0  0  0  0  0  0  0  0  0  0  0  0
    6.9694  -13.7953   25.3246 C   0  0  0  0  0  0  0  0  0  0  0  0
    7.8234  -12.6861   25.1583 C   0  0  0  0  0  0  0  0  0  0  0  0
    7.2619  -11.6524   25.7728 N   0  0  0  0  0  0  0  0  0  0  0  0
    6.1000  -12.0766   26.3100 C   0  0  0  0  0  0  0  0  0  0  0  0
    5.9424  -13.3716   26.0282 N   0  0  0  0  0  0  0  0  0  0  0  0
    9.1692  -16.5486   24.2421 C   0  0  0  0  0  0  0  0  0  0  0  0
    8.5439  -17.5815   23.8819 O   0  0  0  0  0  0  0  0  0  0  0  0
   12.9903  -16.9664   25.5834 O   0  0  0  0  0  0  0  0  0  0  0  0
   12.4194  -18.0234   24.8821 C   0  0  0  0  0  0  0  0  0  0  0  0
   10.9120  -18.0650   25.1110 C   0  0  2  0  0  0  0  0  0  0  0  0
   10.4143  -16.7088   24.8659 N   0  0  0  0  0  0  0  0  0  0  0  0
   10.6719  -18.4492   26.5039 C   0  0  0  0  0  0  0  0  0  0  0  0
   11.0694  -19.6711   27.0265 O   0  0  0  0  0  0  0  0  0  0  0  0
   10.0835  -17.6665   27.2918 O   0  0  0  0  0  0  0  0  0  0  0  0
  2  1  1  6
  3  2  1  0
  4  5  1  0
  4  3  1  0
  5  6  1  0
  6  7  1  0
  8  2  1  0
  8  9  2  0
 10  8  1  0
 11 12  1  1
 11 10  1  0
 13 17  1  0
 13 12  1  0
 14 13  2  0
 15 14  1  0
 15 16  1  0
 16 17  2  0
 18 11  1  0
 19 18  2  0
 21 20  1  0
 22 21  1  1
 22 23  1  0
 23 18  1  0
 24 22  1  0
 24 25  1  0
 26 24  2  0
M  END
$$$$
