VFI.pdb
     RDKit          3D

 27 27  0  0  1  0  0  0  0  0999 V2000
    7.9959  -20.5729   23.4779 C   0  0  0  0  0  0  0  0  0  0  0  0
    8.0323  -20.2185   22.0158 C   0  0  1  0  0  0  0  0  0  0  0  0
    7.4494  -21.3543   21.2113 C   0  0  0  0  0  0  0  0  0  0  0  0
    7.2695  -18.9191   21.8319 C   0  0  2  0  0  0  0  0  0  0  0  0
    7.1336  -18.6111   20.4396 N   0  0  0  0  0  0  0  0  0  0  0  0
    7.8446  -17.8186   22.6227 C   0  0  0  0  0  0  0  0  0  0  0  0
    8.9144  -17.3021   22.2513 O   0  0  0  0  0  0  0  0  0  0  0  0
    7.1799  -17.3649   23.7843 N   0  0  0  0  0  0  0  0  0  0  0  0
    7.5632  -16.2776   24.6204 C   0  0  1  0  0  0  0  0  0  0  0  0
    6.4531  -15.4994   25.2518 C   0  0  0  0  0  0  0  0  0  0  0  0
    6.9489  -14.2826   25.9580 C   0  0  0  0  0  0  0  0  0  0  0  0
    7.4072  -14.2863   27.2436 C   0  0  0  0  0  0  0  0  0  0  0  0
    7.8326  -13.1264   27.9100 C   0  0  0  0  0  0  0  0  0  0  0  0
    7.7545  -11.9547   27.1609 C   0  0  0  0  0  0  0  0  0  0  0  0
    7.2960  -11.9452   25.8669 C   0  0  0  0  0  0  0  0  0  0  0  0
    6.8869  -13.0925   25.2442 C   0  0  0  0  0  0  0  0  0  0  0  0
    8.6691  -16.6460   25.5199 C   0  0  0  0  0  0  0  0  0  0  0  0
    8.6004  -17.6754   26.2588 O   0  0  0  0  0  0  0  0  0  0  0  0
   14.7340  -16.7316   25.1294 C   0  0  0  0  0  0  0  0  0  0  0  0
   13.5488  -16.8923   26.0723 C   0  0  0  0  0  0  0  0  0  0  0  0
   12.3335  -16.2218   25.4483 C   0  0  2  0  0  0  0  0  0  0  0  0
   12.5978  -14.7265   25.3759 C   0  0  0  0  0  0  0  0  0  0  0  0
   11.0862  -16.4709   26.2147 C   0  0  2  0  0  0  0  0  0  0  0  0
    9.8878  -15.8965   25.6393 N   0  0  0  0  0  0  0  0  0  0  0  0
   11.2345  -16.0143   27.6429 C   0  0  0  0  0  0  0  0  0  0  0  0
   12.0463  -16.6446   28.3585 O   0  0  0  0  0  0  0  0  0  0  0  0
   10.5376  -14.9721   28.1711 O   0  0  0  0  0  0  0  0  0  0  0  0
  2  3  1  6
  2  1  1  0
  4  2  1  0
  4  5  1  6
  6  7  2  0
  6  4  1  0
  8  6  1  0
  9  8  1  0
  9 10  1  1
 10 11  1  0
 11 12  2  0
 11 16  1  0
 12 13  1  0
 13 14  2  0
 15 14  1  0
 16 15  2  0
 17 18  2  0
 17  9  1  0
 20 19  1  0
 20 21  1  0
 21 23  1  0
 21 22  1  1
 23 24  1  6
 24 17  1  0
 25 23  1  0
 26 25  2  0
 27 25  1  0
M  END
$$$$
