VFI.pdb
     RDKit          3D

 27 27  0  0  1  0  0  0  0  0999 V2000
    9.1484  -19.1745   19.2861 C   0  0  0  0  0  0  0  0  0  0  0  0
    9.3085  -18.4831   20.6131 C   0  0  1  0  0  0  0  0  0  0  0  0
   10.4453  -19.1193   21.3746 C   0  0  0  0  0  0  0  0  0  0  0  0
    9.5377  -17.0066   20.3448 C   0  0  2  0  0  0  0  0  0  0  0  0
   10.6764  -16.8231   19.4953 N   0  0  0  0  0  0  0  0  0  0  0  0
    9.5987  -16.2177   21.5861 C   0  0  0  0  0  0  0  0  0  0  0  0
   10.7100  -15.9507   22.0789 O   0  0  0  0  0  0  0  0  0  0  0  0
    8.4040  -15.7756   22.1981 N   0  0  0  0  0  0  0  0  0  0  0  0
    8.2860  -15.0274   23.4041 C   0  0  1  0  0  0  0  0  0  0  0  0
    7.0523  -14.1954   23.5537 C   0  0  0  0  0  0  0  0  0  0  0  0
    7.0499  -13.4150   24.8250 C   0  0  0  0  0  0  0  0  0  0  0  0
    6.3862  -13.8046   25.9522 C   0  0  0  0  0  0  0  0  0  0  0  0
    6.3584  -13.0403   27.1292 C   0  0  0  0  0  0  0  0  0  0  0  0
    7.0635  -11.8406   27.0691 C   0  0  0  0  0  0  0  0  0  0  0  0
    7.7344  -11.4445   25.9387 C   0  0  0  0  0  0  0  0  0  0  0  0
    7.7422  -12.2109   24.8056 C   0  0  0  0  0  0  0  0  0  0  0  0
    8.6541  -15.8310   24.5817 C   0  0  0  0  0  0  0  0  0  0  0  0
    8.3344  -17.0561   24.6675 O   0  0  0  0  0  0  0  0  0  0  0  0
   13.6095  -15.9496   28.2046 C   0  0  0  0  0  0  0  0  0  0  0  0
   12.3152  -16.6263   27.7732 C   0  0  0  0  0  0  0  0  0  0  0  0
   11.5031  -15.6433   26.9425 C   0  0  2  0  0  0  0  0  0  0  0  0
   11.3325  -14.3650   27.7474 C   0  0  0  0  0  0  0  0  0  0  0  0
   10.1694  -16.1771   26.5666 C   0  0  2  0  0  0  0  0  0  0  0  0
    9.3849  -15.3167   25.7053 N   0  0  0  0  0  0  0  0  0  0  0  0
    9.3703  -16.5352   27.7927 C   0  0  0  0  0  0  0  0  0  0  0  0
    8.4777  -15.7295   28.1432 O   0  0  0  0  0  0  0  0  0  0  0  0
    9.5767  -17.6692   28.5153 O   0  0  0  0  0  0  0  0  0  0  0  0
  2  3  1  6
  2  1  1  0
  4  2  1  0
  4  5  1  1
  6  7  2  0
  6  4  1  0
  8  6  1  0
  9  8  1  0
  9 10  1  1
 10 11  1  0
 11 12  2  0
 11 16  1  0
 12 13  1  0
 13 14  2  0
 15 14  1  0
 16 15  2  0
 17 18  2  0
 17  9  1  0
 20 19  1  0
 20 21  1  0
 21 23  1  0
 21 22  1  1
 23 24  1  1
 24 17  1  0
 25 23  1  0
 26 25  2  0
 27 25  1  0
M  END
$$$$
