VFI.pdb
     RDKit          3D

 27 27  0  0  1  0  0  0  0  0999 V2000
   10.7083  -19.7230   19.7428 C   0  0  0  0  0  0  0  0  0  0  0  0
   10.6718  -18.8563   20.9724 C   0  0  1  0  0  0  0  0  0  0  0  0
   11.9435  -19.0527   21.7607 C   0  0  0  0  0  0  0  0  0  0  0  0
   10.4772  -17.4191   20.5242 C   0  0  2  0  0  0  0  0  0  0  0  0
   11.5461  -17.0149   19.6605 N   0  0  0  0  0  0  0  0  0  0  0  0
   10.2626  -16.5058   21.6587 C   0  0  0  0  0  0  0  0  0  0  0  0
   11.2169  -15.8234   22.0745 O   0  0  0  0  0  0  0  0  0  0  0  0
    8.9854  -16.4149   22.2568 N   0  0  0  0  0  0  0  0  0  0  0  0
    8.6230  -15.6262   23.3858 C   0  0  1  0  0  0  0  0  0  0  0  0
    7.2352  -15.0688   23.3911 C   0  0  0  0  0  0  0  0  0  0  0  0
    7.0215  -14.1002   24.5052 C   0  0  0  0  0  0  0  0  0  0  0  0
    7.4987  -12.8215   24.4998 C   0  0  0  0  0  0  0  0  0  0  0  0
    7.3255  -11.9332   25.5728 C   0  0  0  0  0  0  0  0  0  0  0  0
    6.6240  -12.4513   26.6589 C   0  0  0  0  0  0  0  0  0  0  0  0
    6.1402  -13.7360   26.6692 C   0  0  0  0  0  0  0  0  0  0  0  0
    6.3260  -14.5793   25.6081 C   0  0  0  0  0  0  0  0  0  0  0  0
    9.0603  -16.2475   24.6471 C   0  0  0  0  0  0  0  0  0  0  0  0
    8.9371  -17.4953   24.8425 O   0  0  0  0  0  0  0  0  0  0  0  0
   10.4635  -13.7307   29.7583 C   0  0  0  0  0  0  0  0  0  0  0  0
    9.7907  -14.6548   28.7520 C   0  0  0  0  0  0  0  0  0  0  0  0
   10.8632  -15.2912   27.8798 C   0  0  2  0  0  0  0  0  0  0  0  0
   11.6575  -14.1799   27.2126 C   0  0  0  0  0  0  0  0  0  0  0  0
   10.2976  -16.1912   26.8429 C   0  0  2  0  0  0  0  0  0  0  0  0
    9.6471  -15.5198   25.7367 N   0  0  0  0  0  0  0  0  0  0  0  0
    9.3530  -17.1909   27.4581 C   0  0  0  0  0  0  0  0  0  0  0  0
    8.1389  -17.0732   27.1742 O   0  0  0  0  0  0  0  0  0  0  0  0
    9.7576  -18.1890   28.2893 O   0  0  0  0  0  0  0  0  0  0  0  0
  2  3  1  6
  2  1  1  0
  4  2  1  0
  4  5  1  1
  6  7  2  0
  6  4  1  0
  8  6  1  0
  9  8  1  0
  9 10  1  1
 10 11  1  0
 11 12  2  0
 11 16  1  0
 12 13  1  0
 13 14  2  0
 15 14  1  0
 16 15  2  0
 17 18  2  0
 17  9  1  0
 20 19  1  0
 20 21  1  0
 21 23  1  0
 21 22  1  6
 23 24  1  6
 24 17  1  0
 25 23  1  0
 26 25  2  0
 27 25  1  0
M  END
$$$$
