VFI.pdb
     RDKit          3D

 27 27  0  0  1  0  0  0  0  0999 V2000
   11.3490  -19.1450   21.8954 C   0  0  0  0  0  0  0  0  0  0  0  0
   11.9507  -18.3643   20.7582 C   0  0  1  0  0  0  0  0  0  0  0  0
   12.2710  -19.3034   19.6212 C   0  0  0  0  0  0  0  0  0  0  0  0
   10.9633  -17.2814   20.3623 C   0  0  2  0  0  0  0  0  0  0  0  0
   11.4245  -16.5845   19.1988 N   0  0  0  0  0  0  0  0  0  0  0  0
   10.6326  -16.3908   21.4868 C   0  0  0  0  0  0  0  0  0  0  0  0
   11.4614  -15.5331   21.8428 O   0  0  0  0  0  0  0  0  0  0  0  0
    9.3875  -16.5187   22.1428 N   0  0  0  0  0  0  0  0  0  0  0  0
    8.9077  -15.7332   23.2295 C   0  0  1  0  0  0  0  0  0  0  0  0
    7.4828  -15.2859   23.1499 C   0  0  0  0  0  0  0  0  0  0  0  0
    7.1015  -14.4132   24.2980 C   0  0  0  0  0  0  0  0  0  0  0  0
    6.4335  -14.8605   25.4010 C   0  0  0  0  0  0  0  0  0  0  0  0
    6.0445  -14.0201   26.4559 C   0  0  0  0  0  0  0  0  0  0  0  0
    6.3906  -12.6800   26.2996 C   0  0  0  0  0  0  0  0  0  0  0  0
    7.0640  -12.2247   25.1932 C   0  0  0  0  0  0  0  0  0  0  0  0
    7.4290  -13.0684   24.1800 C   0  0  0  0  0  0  0  0  0  0  0  0
    9.3255  -16.2873   24.5281 C   0  0  0  0  0  0  0  0  0  0  0  0
    9.4080  -17.5401   24.7123 O   0  0  0  0  0  0  0  0  0  0  0  0
   10.9755  -12.8426   28.7638 C   0  0  0  0  0  0  0  0  0  0  0  0
   11.0899  -13.8373   27.6163 C   0  0  0  0  0  0  0  0  0  0  0  0
   10.3779  -15.1230   28.0111 C   0  0  2  0  0  0  0  0  0  0  0  0
   11.1759  -15.7894   29.1202 C   0  0  0  0  0  0  0  0  0  0  0  0
   10.2240  -16.0644   26.8731 C   0  0  2  0  0  0  0  0  0  0  0  0
    9.6662  -15.4848   25.6688 N   0  0  0  0  0  0  0  0  0  0  0  0
    9.4158  -17.2692   27.2796 C   0  0  0  0  0  0  0  0  0  0  0  0
    8.1700  -17.1712   27.1954 O   0  0  0  0  0  0  0  0  0  0  0  0
    9.9726  -18.4281   27.7243 O   0  0  0  0  0  0  0  0  0  0  0  0
  2  3  1  6
  2  1  1  0
  4  2  1  0
  4  5  1  6
  6  7  2  0
  6  4  1  0
  8  6  1  0
  9  8  1  0
  9 10  1  1
 10 11  1  0
 11 12  2  0
 11 16  1  0
 12 13  1  0
 13 14  2  0
 15 14  1  0
 16 15  2  0
 17 18  2  0
 17  9  1  0
 20 19  1  0
 20 21  1  0
 21 23  1  0
 21 22  1  1
 23 24  1  6
 24 17  1  0
 25 23  1  0
 26 25  2  0
 27 25  1  0
M  END
$$$$
