VFI.pdb
     RDKit          3D

 27 27  0  0  1  0  0  0  0  0999 V2000
   11.3903  -19.6445   19.7114 C   0  0  0  0  0  0  0  0  0  0  0  0
   11.2740  -18.7095   20.8848 C   0  0  1  0  0  0  0  0  0  0  0  0
   12.5994  -18.6411   21.6030 C   0  0  0  0  0  0  0  0  0  0  0  0
   10.8216  -17.3584   20.3612 C   0  0  2  0  0  0  0  0  0  0  0  0
   11.7815  -16.8327   19.4370 N   0  0  0  0  0  0  0  0  0  0  0  0
   10.4814  -16.4252   21.4478 C   0  0  0  0  0  0  0  0  0  0  0  0
   11.2904  -15.5290   21.7506 O   0  0  0  0  0  0  0  0  0  0  0  0
    9.2498  -16.5566   22.1281 N   0  0  0  0  0  0  0  0  0  0  0  0
    8.7882  -15.7708   23.2225 C   0  0  1  0  0  0  0  0  0  0  0  0
    7.3522  -15.3546   23.1848 C   0  0  0  0  0  0  0  0  0  0  0  0
    7.0030  -14.4340   24.3053 C   0  0  0  0  0  0  0  0  0  0  0  0
    7.4615  -13.1522   24.4041 C   0  0  0  0  0  0  0  0  0  0  0  0
    7.1582  -12.3098   25.4851 C   0  0  0  0  0  0  0  0  0  0  0  0
    6.3464  -12.8774   26.4643 C   0  0  0  0  0  0  0  0  0  0  0  0
    5.8807  -14.1655   26.3694 C   0  0  0  0  0  0  0  0  0  0  0  0
    6.1947  -14.9633   25.3034 C   0  0  0  0  0  0  0  0  0  0  0  0
    9.2592  -16.3031   24.5120 C   0  0  0  0  0  0  0  0  0  0  0  0
    9.4637  -17.5448   24.6753 O   0  0  0  0  0  0  0  0  0  0  0  0
   10.4999  -12.8238   28.8863 C   0  0  0  0  0  0  0  0  0  0  0  0
   10.7173  -13.7511   27.6979 C   0  0  0  0  0  0  0  0  0  0  0  0
   10.1400  -15.1187   28.0331 C   0  0  2  0  0  0  0  0  0  0  0  0
   10.9739  -15.7284   29.1485 C   0  0  0  0  0  0  0  0  0  0  0  0
   10.1243  -16.0351   26.8647 C   0  0  2  0  0  0  0  0  0  0  0  0
    9.5210  -15.4903   25.6661 N   0  0  0  0  0  0  0  0  0  0  0  0
    9.4641  -17.3426   27.2179 C   0  0  0  0  0  0  0  0  0  0  0  0
   10.1618  -18.1830   27.8304 O   0  0  0  0  0  0  0  0  0  0  0  0
    8.1737  -17.6377   26.9038 O   0  0  0  0  0  0  0  0  0  0  0  0
  2  3  1  6
  2  1  1  0
  4  2  1  0
  4  5  1  1
  6  7  2  0
  6  4  1  0
  8  6  1  0
  9  8  1  0
  9 10  1  1
 10 11  1  0
 11 12  2  0
 11 16  1  0
 12 13  1  0
 13 14  2  0
 15 14  1  0
 16 15  2  0
 17 18  2  0
 17  9  1  0
 20 19  1  0
 20 21  1  0
 21 23  1  0
 21 22  1  1
 23 24  1  6
 24 17  1  0
 25 23  1  0
 26 25  2  0
 27 25  1  0
M  END
$$$$
