LHD.pdb
     RDKit          3D

 27 27  0  0  1  0  0  0  0  0999 V2000
   43.0199  -18.7741   -8.8971 C   0  0  0  0  0  0  0  0  0  0  0  0
   43.8568  -17.6646   -8.3037 C   0  0  1  0  0  0  0  0  0  0  0  0
   45.3099  -18.0834   -8.3677 C   0  0  0  0  0  0  0  0  0  0  0  0
   43.7191  -16.3766   -9.0868 C   0  0  0  0  0  0  0  0  0  0  0  0
   44.3387  -15.2100   -8.3889 C   0  0  2  0  0  0  0  0  0  0  0  0
   43.8918  -15.0378   -7.0275 N   0  0  0  0  0  0  0  0  0  0  0  0
   44.1017  -13.9978   -9.2146 C   0  0  0  0  0  0  0  0  0  0  0  0
   44.7461  -13.9087  -10.2907 O   0  0  0  0  0  0  0  0  0  0  0  0
   43.2189  -12.9668   -8.8718 N   0  0  0  0  0  0  0  0  0  0  0  0
   42.9642  -11.8040   -9.6960 C   0  0  1  0  0  0  0  0  0  0  0  0
   41.6486  -11.8871  -10.4042 C   0  0  0  0  0  0  0  0  0  0  0  0
   41.8374  -12.5096  -11.7406 C   0  0  0  0  0  0  0  0  0  0  0  0
   43.0782  -12.8495  -12.2757 C   0  0  0  0  0  0  0  0  0  0  0  0
   42.9143  -13.3919  -13.4985 N   0  0  0  0  0  0  0  0  0  0  0  0
   41.5949  -13.3892  -13.7197 C   0  0  0  0  0  0  0  0  0  0  0  0
   40.9342  -12.8561  -12.6589 N   0  0  0  0  0  0  0  0  0  0  0  0
   43.1664  -10.6013   -8.9033 C   0  0  0  0  0  0  0  0  0  0  0  0
   42.9148  -10.6200   -7.6749 O   0  0  0  0  0  0  0  0  0  0  0  0
   43.6497   -9.3608   -9.4581 N   0  0  0  0  0  0  0  0  0  0  0  0
   43.7944   -8.1769   -8.6535 C   0  0  1  0  0  0  0  0  0  0  0  0
   45.1605   -8.0295   -8.0857 C   0  0  0  0  0  0  0  0  0  0  0  0
   45.2740   -6.7906   -7.3141 C   0  0  0  0  0  0  0  0  0  0  0  0
   45.7140   -5.7551   -7.8544 O   0  0  0  0  0  0  0  0  0  0  0  0
   43.3856   -6.9666   -9.4366 C   0  0  0  0  0  0  0  0  0  0  0  0
   43.5527   -6.9092  -10.6795 O   0  0  0  0  0  0  0  0  0  0  0  0
   44.8946   -6.7485   -5.9715 O   0  0  0  0  0  0  0  0  0  0  0  0
   42.8071   -5.8612   -8.8252 O   0  0  0  0  0  0  0  0  0  0  0  0
  2  4  1  0
  2  1  1  6
  3  2  1  0
  5  4  1  0
  5  6  1  1
  7  8  2  0
  7  5  1  0
  9  7  1  0
 10  9  1  0
 10 11  1  1
 12 11  1  0
 13 12  2  0
 14 13  1  0
 14 15  1  0
 15 16  2  0
 16 12  1  0
 17 18  2  0
 17 10  1  0
 19 17  1  0
 20 21  1  6
 20 19  1  0
 21 22  1  0
 22 26  1  0
 22 23  2  0
 24 20  1  0
 25 24  2  0
 27 24  1  0
M  END
$$$$
