LHD.pdb
     RDKit          3D

 27 27  0  0  1  0  0  0  0  0999 V2000
   36.6441  -12.1997  -19.0692 C   0  0  0  0  0  0  0  0  0  0  0  0
   35.8954  -11.0782  -18.3873 C   0  0  1  0  0  0  0  0  0  0  0  0
   36.3326   -9.7705  -19.0116 C   0  0  0  0  0  0  0  0  0  0  0  0
   34.3996  -11.1995  -18.5848 C   0  0  0  0  0  0  0  0  0  0  0  0
   33.6385  -10.1132  -17.8974 C   0  0  2  0  0  0  0  0  0  0  0  0
   33.9986   -9.9332  -16.5116 N   0  0  0  0  0  0  0  0  0  0  0  0
   32.1880  -10.3846  -18.0692 C   0  0  0  0  0  0  0  0  0  0  0  0
   31.7579  -10.4487  -19.2492 O   0  0  0  0  0  0  0  0  0  0  0  0
   31.2870  -10.5701  -17.0139 N   0  0  0  0  0  0  0  0  0  0  0  0
   29.8699  -10.8125  -17.1851 C   0  0  1  0  0  0  0  0  0  0  0  0
   29.2760  -11.5504  -16.0266 C   0  0  0  0  0  0  0  0  0  0  0  0
   27.9017  -12.0000  -16.3704 C   0  0  0  0  0  0  0  0  0  0  0  0
   27.2796  -11.7473  -17.5913 C   0  0  0  0  0  0  0  0  0  0  0  0
   26.0428  -12.2829  -17.5923 N   0  0  0  0  0  0  0  0  0  0  0  0
   25.8986  -12.8583  -16.3932 C   0  0  0  0  0  0  0  0  0  0  0  0
   27.0209  -12.6917  -15.6458 N   0  0  0  0  0  0  0  0  0  0  0  0
   29.2082   -9.5636  -17.5292 C   0  0  0  0  0  0  0  0  0  0  0  0
   29.6388   -8.4845  -17.0572 O   0  0  0  0  0  0  0  0  0  0  0  0
   28.0610   -9.4906  -18.4002 N   0  0  0  0  0  0  0  0  0  0  0  0
   27.5351   -8.2313  -18.8559 C   0  0  1  0  0  0  0  0  0  0  0  0
   28.5528   -7.3992  -19.5502 C   0  0  0  0  0  0  0  0  0  0  0  0
   27.9689   -6.1391  -20.0133 C   0  0  0  0  0  0  0  0  0  0  0  0
   27.4980   -5.3279  -19.1900 O   0  0  0  0  0  0  0  0  0  0  0  0
   26.3249   -8.4554  -19.7105 C   0  0  0  0  0  0  0  0  0  0  0  0
   26.2887   -9.3825  -20.5564 O   0  0  0  0  0  0  0  0  0  0  0  0
   27.9299   -5.8277  -21.3733 O   0  0  0  0  0  0  0  0  0  0  0  0
   25.1964   -7.6519  -19.6051 O   0  0  0  0  0  0  0  0  0  0  0  0
  2  4  1  0
  2  1  1  6
  3  2  1  0
  5  4  1  0
  5  6  1  1
  7  8  2  0
  7  5  1  0
  9  7  1  0
 10  9  1  0
 10 11  1  1
 12 11  1  0
 13 12  2  0
 14 13  1  0
 14 15  1  0
 15 16  2  0
 16 12  1  0
 17 18  2  0
 17 10  1  0
 19 17  1  0
 20 21  1  6
 20 19  1  0
 21 22  1  0
 22 26  1  0
 22 23  2  0
 24 20  1  0
 25 24  2  0
 27 24  1  0
M  END
$$$$
