LHD.pdb
     RDKit          3D

 27 27  0  0  1  0  0  0  0  0999 V2000
   31.0685  -23.5792  -16.8119 C   0  0  0  0  0  0  0  0  0  0  0  0
   29.6209  -23.6655  -17.2367 C   0  0  1  0  0  0  0  0  0  0  0  0
   29.1060  -25.0439  -16.8816 C   0  0  0  0  0  0  0  0  0  0  0  0
   28.7602  -22.6561  -16.5076 C   0  0  0  0  0  0  0  0  0  0  0  0
   27.3214  -22.7356  -16.9015 C   0  0  2  0  0  0  0  0  0  0  0  0
   27.1086  -22.8183  -18.3265 N   0  0  0  0  0  0  0  0  0  0  0  0
   26.6110  -21.5805  -16.2945 C   0  0  0  0  0  0  0  0  0  0  0  0
   26.7534  -21.4130  -15.0564 O   0  0  0  0  0  0  0  0  0  0  0  0
   25.8065  -20.6830  -17.0066 N   0  0  0  0  0  0  0  0  0  0  0  0
   25.2351  -19.4774  -16.4441 C   0  0  1  0  0  0  0  0  0  0  0  0
   25.6106  -18.2550  -17.2212 C   0  0  0  0  0  0  0  0  0  0  0  0
   27.0793  -18.0416  -17.1406 C   0  0  0  0  0  0  0  0  0  0  0  0
   27.7251  -17.4559  -16.0537 C   0  0  0  0  0  0  0  0  0  0  0  0
   29.0518  -17.4045  -16.2852 N   0  0  0  0  0  0  0  0  0  0  0  0
   29.2276  -17.9486  -17.4946 C   0  0  0  0  0  0  0  0  0  0  0  0
   28.0369  -18.3378  -18.0206 N   0  0  0  0  0  0  0  0  0  0  0  0
   23.8072  -19.6714  -16.2458 C   0  0  0  0  0  0  0  0  0  0  0  0
   23.1347  -20.2614  -17.1246 O   0  0  0  0  0  0  0  0  0  0  0  0
   23.1030  -19.2154  -15.0725 N   0  0  0  0  0  0  0  0  0  0  0  0
   21.6808  -19.3809  -14.9310 C   0  0  1  0  0  0  0  0  0  0  0  0
   21.3035  -20.0692  -13.6684 C   0  0  0  0  0  0  0  0  0  0  0  0
   19.8565  -20.2809  -13.6017 C   0  0  0  0  0  0  0  0  0  0  0  0
   19.2330  -20.6643  -14.6127 O   0  0  0  0  0  0  0  0  0  0  0  0
   20.9902  -18.0584  -15.0696 C   0  0  0  0  0  0  0  0  0  0  0  0
   21.6117  -16.9799  -14.9060 O   0  0  0  0  0  0  0  0  0  0  0  0
   19.1565  -20.0588  -12.4148 O   0  0  0  0  0  0  0  0  0  0  0  0
   19.6397  -17.9680  -15.3834 O   0  0  0  0  0  0  0  0  0  0  0  0
  2  4  1  0
  2  1  1  1
  3  2  1  0
  5  4  1  0
  5  6  1  6
  7  8  2  0
  7  5  1  0
  9  7  1  0
 10  9  1  0
 10 11  1  6
 12 11  1  0
 13 12  2  0
 14 13  1  0
 14 15  1  0
 15 16  2  0
 16 12  1  0
 17 18  2  0
 17 10  1  0
 19 17  1  0
 20 21  1  1
 20 19  1  0
 21 22  1  0
 22 26  1  0
 22 23  2  0
 24 20  1  0
 25 24  2  0
 27 24  1  0
M  END
$$$$
