LHD.pdb
     RDKit          3D

 27 27  0  0  1  0  0  0  0  0999 V2000
   38.6951  -26.6056  -19.9820 C   0  0  0  0  0  0  0  0  0  0  0  0
   37.7443  -26.6749  -18.8096 C   0  0  1  0  0  0  0  0  0  0  0  0
   37.5030  -25.2655  -18.3133 C   0  0  0  0  0  0  0  0  0  0  0  0
   36.4032  -27.2536  -19.2071 C   0  0  0  0  0  0  0  0  0  0  0  0
   35.4958  -27.4588  -18.0382 C   0  0  2  0  0  0  0  0  0  0  0  0
   35.5038  -26.3683  -17.0928 N   0  0  0  0  0  0  0  0  0  0  0  0
   35.8465  -28.7549  -17.4023 C   0  0  0  0  0  0  0  0  0  0  0  0
   36.0391  -29.7311  -18.1712 O   0  0  0  0  0  0  0  0  0  0  0  0
   35.9731  -28.9507  -16.0219 N   0  0  0  0  0  0  0  0  0  0  0  0
   36.2972  -30.2197  -15.4049 C   0  0  1  0  0  0  0  0  0  0  0  0
   36.6187  -30.0784  -13.9503 C   0  0  0  0  0  0  0  0  0  0  0  0
   37.0485  -31.3914  -13.4024 C   0  0  0  0  0  0  0  0  0  0  0  0
   36.2991  -32.1447  -12.5010 C   0  0  0  0  0  0  0  0  0  0  0  0
   36.9590  -33.2797  -12.1961 N   0  0  0  0  0  0  0  0  0  0  0  0
   38.0984  -33.2327  -12.8956 C   0  0  0  0  0  0  0  0  0  0  0  0
   38.1610  -32.0912  -13.6298 N   0  0  0  0  0  0  0  0  0  0  0  0
   35.2549  -31.1848  -15.7183 C   0  0  0  0  0  0  0  0  0  0  0  0
   34.0591  -30.9109  -15.4580 O   0  0  0  0  0  0  0  0  0  0  0  0
   35.5206  -32.4666  -16.3239 N   0  0  0  0  0  0  0  0  0  0  0  0
   34.4583  -33.3608  -16.7006 C   0  0  1  0  0  0  0  0  0  0  0  0
   33.4547  -32.7206  -17.5912 C   0  0  0  0  0  0  0  0  0  0  0  0
   32.4300  -33.6831  -17.9995 C   0  0  0  0  0  0  0  0  0  0  0  0
   32.4067  -34.8242  -17.4943 O   0  0  0  0  0  0  0  0  0  0  0  0
   35.0238  -34.6082  -17.3083 C   0  0  0  0  0  0  0  0  0  0  0  0
   34.3013  -35.6123  -17.5230 O   0  0  0  0  0  0  0  0  0  0  0  0
   31.4697  -33.3420  -18.9533 O   0  0  0  0  0  0  0  0  0  0  0  0
   36.3645  -34.7080  -17.6589 O   0  0  0  0  0  0  0  0  0  0  0  0
  2  4  1  0
  2  1  1  6
  3  2  1  0
  5  4  1  0
  5  6  1  1
  7  8  2  0
  7  5  1  0
  9  7  1  0
 10  9  1  0
 10 11  1  1
 12 11  1  0
 13 12  2  0
 14 13  1  0
 14 15  1  0
 15 16  2  0
 16 12  1  0
 17 18  2  0
 17 10  1  0
 19 17  1  0
 20 21  1  6
 20 19  1  0
 21 22  1  0
 22 26  1  0
 22 23  2  0
 24 20  1  0
 25 24  2  0
 27 24  1  0
M  END
$$$$
