LHD.pdb
     RDKit          3D

 27 27  0  0  1  0  0  0  0  0999 V2000
   28.8566  -12.1167  -18.8346 C   0  0  0  0  0  0  0  0  0  0  0  0
   28.1971  -11.8757  -17.4966 C   0  0  1  0  0  0  0  0  0  0  0  0
   29.1466  -11.0644  -16.6414 C   0  0  0  0  0  0  0  0  0  0  0  0
   26.9171  -11.0798  -17.6362 C   0  0  0  0  0  0  0  0  0  0  0  0
   26.2464  -10.8339  -16.3242 C   0  0  2  0  0  0  0  0  0  0  0  0
   26.1899  -11.9952  -15.4692 N   0  0  0  0  0  0  0  0  0  0  0  0
   24.8989  -10.2687  -16.5922 C   0  0  0  0  0  0  0  0  0  0  0  0
   24.8486   -9.2326  -17.3029 O   0  0  0  0  0  0  0  0  0  0  0  0
   23.7024  -10.8117  -16.1089 N   0  0  0  0  0  0  0  0  0  0  0  0
   22.3966  -10.2224  -16.3185 C   0  0  1  0  0  0  0  0  0  0  0  0
   21.2994  -11.2383  -16.2619 C   0  0  0  0  0  0  0  0  0  0  0  0
   19.9898  -10.5749  -16.4944 C   0  0  0  0  0  0  0  0  0  0  0  0
   19.4389  -10.3542  -17.7551 C   0  0  0  0  0  0  0  0  0  0  0  0
   18.2491   -9.7334  -17.6304 N   0  0  0  0  0  0  0  0  0  0  0  0
   18.0637   -9.5711  -16.3154 C   0  0  0  0  0  0  0  0  0  0  0  0
   19.1143  -10.0785  -15.6192 N   0  0  0  0  0  0  0  0  0  0  0  0
   22.2351   -9.0855  -15.4255 C   0  0  0  0  0  0  0  0  0  0  0  0
   22.9656   -8.9866  -14.4110 O   0  0  0  0  0  0  0  0  0  0  0  0
   21.2635   -8.0419  -15.6422 N   0  0  0  0  0  0  0  0  0  0  0  0
   21.1918   -6.8851  -14.7897 C   0  0  1  0  0  0  0  0  0  0  0  0
   22.4835   -6.1545  -14.7001 C   0  0  0  0  0  0  0  0  0  0  0  0
   22.3625   -4.9858  -13.8268 C   0  0  0  0  0  0  0  0  0  0  0  0
   21.9307   -5.1164  -12.6630 O   0  0  0  0  0  0  0  0  0  0  0  0
   20.0759   -5.9871  -15.2296 C   0  0  0  0  0  0  0  0  0  0  0  0
   19.6398   -6.0205  -16.4064 O   0  0  0  0  0  0  0  0  0  0  0  0
   22.7255   -3.7161  -14.2789 O   0  0  0  0  0  0  0  0  0  0  0  0
   19.4784   -5.0834  -14.3598 O   0  0  0  0  0  0  0  0  0  0  0  0
  2  4  1  0
  2  1  1  6
  3  2  1  0
  5  4  1  0
  5  6  1  6
  7  8  2  0
  7  5  1  0
  9  7  1  0
 10  9  1  0
 10 11  1  1
 12 11  1  0
 13 12  2  0
 14 13  1  0
 14 15  1  0
 15 16  2  0
 16 12  1  0
 17 18  2  0
 17 10  1  0
 19 17  1  0
 20 21  1  6
 20 19  1  0
 21 22  1  0
 22 26  1  0
 22 23  2  0
 24 20  1  0
 25 24  2  0
 27 24  1  0
M  END
$$$$
