LHD.pdb
     RDKit          3D

 27 27  0  0  1  0  0  0  0  0999 V2000
   28.4305  -22.1454  -15.5412 C   0  0  0  0  0  0  0  0  0  0  0  0
   28.2114  -21.0699  -16.5799 C   0  0  1  0  0  0  0  0  0  0  0  0
   28.0344  -21.7415  -17.9248 C   0  0  0  0  0  0  0  0  0  0  0  0
   26.9579  -20.2680  -16.3027 C   0  0  0  0  0  0  0  0  0  0  0  0
   26.6916  -19.2364  -17.3500 C   0  0  2  0  0  0  0  0  0  0  0  0
   27.7594  -18.2794  -17.5135 N   0  0  0  0  0  0  0  0  0  0  0  0
   25.3953  -18.5821  -17.0357 C   0  0  0  0  0  0  0  0  0  0  0  0
   25.4325  -17.5886  -16.2658 O   0  0  0  0  0  0  0  0  0  0  0  0
   24.1563  -18.9987  -17.5370 N   0  0  0  0  0  0  0  0  0  0  0  0
   22.9089  -18.2991  -17.3117 C   0  0  1  0  0  0  0  0  0  0  0  0
   22.3447  -17.7237  -18.5725 C   0  0  0  0  0  0  0  0  0  0  0  0
   23.2054  -16.6069  -19.0426 C   0  0  0  0  0  0  0  0  0  0  0  0
   24.1027  -16.7055  -20.1039 C   0  0  0  0  0  0  0  0  0  0  0  0
   24.7310  -15.5263  -20.2809 N   0  0  0  0  0  0  0  0  0  0  0  0
   24.2330  -14.7091  -19.3461 C   0  0  0  0  0  0  0  0  0  0  0  0
   23.3073  -15.3560  -18.5908 N   0  0  0  0  0  0  0  0  0  0  0  0
   22.0051  -19.1598  -16.5646 C   0  0  0  0  0  0  0  0  0  0  0  0
   22.4538  -20.1834  -15.9957 O   0  0  0  0  0  0  0  0  0  0  0  0
   20.5921  -18.9005  -16.4361 N   0  0  0  0  0  0  0  0  0  0  0  0
   19.7371  -19.7415  -15.6412 C   0  0  1  0  0  0  0  0  0  0  0  0
   20.1807  -19.8405  -14.2257 C   0  0  0  0  0  0  0  0  0  0  0  0
   19.2590  -20.6691  -13.4467 C   0  0  0  0  0  0  0  0  0  0  0  0
   18.7958  -21.7196  -13.9364 O   0  0  0  0  0  0  0  0  0  0  0  0
   18.3156  -19.2796  -15.7461 C   0  0  0  0  0  0  0  0  0  0  0  0
   18.0289  -18.1670  -16.2521 O   0  0  0  0  0  0  0  0  0  0  0  0
   18.8864  -20.2998  -12.1533 O   0  0  0  0  0  0  0  0  0  0  0  0
   17.2584  -20.0577  -15.2906 O   0  0  0  0  0  0  0  0  0  0  0  0
  2  4  1  0
  2  1  1  1
  3  2  1  0
  5  4  1  0
  5  6  1  1
  7  8  2  0
  7  5  1  0
  9  7  1  0
 10  9  1  0
 10 11  1  6
 12 11  1  0
 13 12  2  0
 14 13  1  0
 14 15  1  0
 15 16  2  0
 16 12  1  0
 17 18  2  0
 17 10  1  0
 19 17  1  0
 20 21  1  1
 20 19  1  0
 21 22  1  0
 22 26  1  0
 22 23  2  0
 24 20  1  0
 25 24  2  0
 27 24  1  0
M  END
$$$$
