LHD.pdb
     RDKit          3D

 27 27  0  0  1  0  0  0  0  0999 V2000
   29.0480  -11.5358  -16.6112 C   0  0  0  0  0  0  0  0  0  0  0  0
   27.5372  -11.5664  -16.5991 C   0  0  1  0  0  0  0  0  0  0  0  0
   27.0944  -13.0135  -16.5692 C   0  0  0  0  0  0  0  0  0  0  0  0
   26.9714  -10.8915  -15.3679 C   0  0  0  0  0  0  0  0  0  0  0  0
   25.5174  -10.5759  -15.5018 C   0  0  2  0  0  0  0  0  0  0  0  0
   24.7505  -11.6135  -16.1483 N   0  0  0  0  0  0  0  0  0  0  0  0
   25.3898   -9.2688  -16.1964 C   0  0  0  0  0  0  0  0  0  0  0  0
   26.0306   -8.3023  -15.7102 O   0  0  0  0  0  0  0  0  0  0  0  0
   24.6121   -9.0529  -17.3403 N   0  0  0  0  0  0  0  0  0  0  0  0
   24.4114   -7.7586  -17.9572 C   0  0  1  0  0  0  0  0  0  0  0  0
   25.0275   -7.6766  -19.3184 C   0  0  0  0  0  0  0  0  0  0  0  0
   26.5089   -7.6727  -19.1984 C   0  0  0  0  0  0  0  0  0  0  0  0
   27.2596   -6.5592  -18.8269 C   0  0  0  0  0  0  0  0  0  0  0  0
   28.5693   -6.8768  -18.8114 N   0  0  0  0  0  0  0  0  0  0  0  0
   28.6317   -8.1649  -19.1671 C   0  0  0  0  0  0  0  0  0  0  0  0
   27.3870   -8.6556  -19.4035 N   0  0  0  0  0  0  0  0  0  0  0  0
   23.0002   -7.4112  -17.8937 C   0  0  0  0  0  0  0  0  0  0  0  0
   22.1350   -8.3037  -18.0594 O   0  0  0  0  0  0  0  0  0  0  0  0
   22.5263   -6.0717  -17.6462 N   0  0  0  0  0  0  0  0  0  0  0  0
   21.1284   -5.7850  -17.4621 C   0  0  1  0  0  0  0  0  0  0  0  0
   20.5530   -6.4635  -16.2709 C   0  0  0  0  0  0  0  0  0  0  0  0
   19.1428   -6.1098  -16.0994 C   0  0  0  0  0  0  0  0  0  0  0  0
   18.2909   -6.5225  -16.9129 O   0  0  0  0  0  0  0  0  0  0  0  0
   20.9059   -4.3039  -17.4185 C   0  0  0  0  0  0  0  0  0  0  0  0
   21.8555   -3.5095  -17.2103 O   0  0  0  0  0  0  0  0  0  0  0  0
   18.7320   -5.3111  -15.0310 O   0  0  0  0  0  0  0  0  0  0  0  0
   19.6464   -3.7479  -17.6053 O   0  0  0  0  0  0  0  0  0  0  0  0
  2  4  1  0
  2  1  1  1
  3  2  1  0
  5  4  1  0
  5  6  1  6
  7  8  2  0
  7  5  1  0
  9  7  1  0
 10  9  1  0
 10 11  1  6
 12 11  1  0
 13 12  2  0
 14 13  1  0
 14 15  1  0
 15 16  2  0
 16 12  1  0
 17 18  2  0
 17 10  1  0
 19 17  1  0
 20 21  1  1
 20 19  1  0
 21 22  1  0
 22 26  1  0
 22 23  2  0
 24 20  1  0
 25 24  2  0
 27 24  1  0
M  END
$$$$
