LHD.pdb
     RDKit          3D

 27 27  0  0  1  0  0  0  0  0999 V2000
   25.5129  -13.9758  -19.8110 C   0  0  0  0  0  0  0  0  0  0  0  0
   25.5607  -13.3451  -18.4386 C   0  0  1  0  0  0  0  0  0  0  0  0
   26.9849  -13.4239  -17.9321 C   0  0  0  0  0  0  0  0  0  0  0  0
   25.1718  -11.8828  -18.4783 C   0  0  0  0  0  0  0  0  0  0  0  0
   25.0339  -11.2869  -17.1153 C   0  0  2  0  0  0  0  0  0  0  0  0
   25.1440  -12.2468  -16.0432 N   0  0  0  0  0  0  0  0  0  0  0  0
   23.7532  -10.5356  -17.0662 C   0  0  0  0  0  0  0  0  0  0  0  0
   23.6224   -9.5824  -17.8758 O   0  0  0  0  0  0  0  0  0  0  0  0
   22.7014  -10.8209  -16.1874 N   0  0  0  0  0  0  0  0  0  0  0  0
   21.4296  -10.1289  -16.1864 C   0  0  1  0  0  0  0  0  0  0  0  0
   20.3055  -11.0073  -15.7348 C   0  0  0  0  0  0  0  0  0  0  0  0
   19.0272  -10.2508  -15.7852 C   0  0  0  0  0  0  0  0  0  0  0  0
   18.2557   -9.9452  -14.6659 C   0  0  0  0  0  0  0  0  0  0  0  0
   17.1608   -9.2546  -15.0415 N   0  0  0  0  0  0  0  0  0  0  0  0
   17.2502   -9.1331  -16.3708 C   0  0  0  0  0  0  0  0  0  0  0  0
   18.3788   -9.7341  -16.8301 N   0  0  0  0  0  0  0  0  0  0  0  0
   21.5667   -8.8757  -15.4607 C   0  0  0  0  0  0  0  0  0  0  0  0
   22.3304   -8.8157  -14.4678 O   0  0  0  0  0  0  0  0  0  0  0  0
   20.8610   -7.6711  -15.8229 N   0  0  0  0  0  0  0  0  0  0  0  0
   21.0585   -6.4353  -15.1133 C   0  0  1  0  0  0  0  0  0  0  0  0
   22.1365   -5.5982  -15.7027 C   0  0  0  0  0  0  0  0  0  0  0  0
   22.2935   -4.3484  -14.9568 C   0  0  0  0  0  0  0  0  0  0  0  0
   21.8969   -4.2704  -13.7760 O   0  0  0  0  0  0  0  0  0  0  0  0
   19.7656   -5.6847  -15.0127 C   0  0  0  0  0  0  0  0  0  0  0  0
   19.0697   -5.4488  -16.0306 O   0  0  0  0  0  0  0  0  0  0  0  0
   22.8852   -3.2323  -15.5505 O   0  0  0  0  0  0  0  0  0  0  0  0
   19.2829   -5.2195  -13.7957 O   0  0  0  0  0  0  0  0  0  0  0  0
  2  4  1  0
  2  1  1  6
  3  2  1  0
  5  4  1  0
  5  6  1  1
  7  8  2  0
  7  5  1  0
  9  7  1  0
 10  9  1  0
 10 11  1  1
 12 11  1  0
 13 12  2  0
 14 13  1  0
 14 15  1  0
 15 16  2  0
 16 12  1  0
 17 18  2  0
 17 10  1  0
 19 17  1  0
 20 21  1  6
 20 19  1  0
 21 22  1  0
 22 26  1  0
 22 23  2  0
 24 20  1  0
 25 24  2  0
 27 24  1  0
M  END
$$$$
