CAV.pdb
     RDKit          3D

 19 18  0  0  1  0  0  0  0  0999 V2000
    6.8981  -16.7218   19.0509 N   0  0  0  0  0  0  0  0  0  0  0  0
    7.6663  -15.8768   19.9408 C   0  0  1  0  0  0  0  0  0  0  0  0
    7.5117  -14.4320   19.5150 C   0  0  0  0  0  0  0  0  0  0  0  0
    8.3597  -13.3783   20.7243 S   0  0  0  0  0  0  0  0  0  0  0  0
    7.1835  -16.0987   21.3225 C   0  0  0  0  0  0  0  0  0  0  0  0
    5.9554  -16.0376   21.5566 O   0  0  0  0  0  0  0  0  0  0  0  0
    7.9311  -17.9820   24.1522 C   0  0  0  0  0  0  0  0  0  0  0  0
    7.7144  -16.5380   23.7168 C   0  0  2  0  0  0  0  0  0  0  0  0
    8.1367  -16.3791   22.3630 N   0  0  0  0  0  0  0  0  0  0  0  0
    8.4821  -15.6518   24.6254 C   0  0  0  0  0  0  0  0  0  0  0  0
    9.7207  -15.5235   24.5923 O   0  0  0  0  0  0  0  0  0  0  0  0
    8.4793  -11.9813   27.8774 C   0  0  0  0  0  0  0  0  0  0  0  0
    7.6856  -12.7542   26.8411 C   0  0  2  0  0  0  0  0  0  0  0  0
    6.3563  -13.0742   27.4343 C   0  0  0  0  0  0  0  0  0  0  0  0
    8.4911  -13.9471   26.4527 C   0  0  2  0  0  0  0  0  0  0  0  0
    7.8017  -14.8844   25.6084 N   0  0  0  0  0  0  0  0  0  0  0  0
    9.0450  -14.6826   27.6001 C   0  0  0  0  0  0  0  0  0  0  0  0
    9.9189  -14.1759   28.3315 O   0  0  0  0  0  0  0  0  0  0  0  0
    8.6006  -15.9536   27.8840 O   0  0  0  0  0  0  0  0  0  0  0  0
  2  3  1  0
  2  1  1  6
  3  4  1  0
  5  6  2  0
  5  2  1  0
  8  7  1  1
  8  9  1  0
  9  5  1  0
 10 11  2  0
 10  8  1  0
 13 12  1  1
 13 14  1  0
 15 13  1  0
 15 16  1  1
 16 10  1  0
 17 15  1  0
 18 17  2  0
 19 17  1  0
M  END
$$$$
