CAV.pdb
     RDKit          3D

 19 18  0  0  1  0  0  0  0  0999 V2000
    6.8516  -17.7234   19.7052 N   0  0  0  0  0  0  0  0  0  0  0  0
    7.8358  -17.0392   20.5171 C   0  0  1  0  0  0  0  0  0  0  0  0
    8.3321  -15.8160   19.7752 C   0  0  0  0  0  0  0  0  0  0  0  0
    9.6082  -15.0078   20.7801 S   0  0  0  0  0  0  0  0  0  0  0  0
    7.2050  -16.6824   21.8078 C   0  0  0  0  0  0  0  0  0  0  0  0
    6.1516  -16.0063   21.8057 O   0  0  0  0  0  0  0  0  0  0  0  0
    7.3177  -17.9463   25.2432 C   0  0  0  0  0  0  0  0  0  0  0  0
    7.2665  -16.7527   24.2976 C   0  0  2  0  0  0  0  0  0  0  0  0
    7.8173  -17.1210   23.0337 N   0  0  0  0  0  0  0  0  0  0  0  0
    8.0267  -15.6349   24.9083 C   0  0  0  0  0  0  0  0  0  0  0  0
    9.2364  -15.4201   24.7034 O   0  0  0  0  0  0  0  0  0  0  0  0
    6.1368  -12.6925   27.5408 C   0  0  0  0  0  0  0  0  0  0  0  0
    7.2173  -12.3837   26.5218 C   0  0  2  0  0  0  0  0  0  0  0  0
    6.5445  -11.9356   25.2696 C   0  0  0  0  0  0  0  0  0  0  0  0
    8.0559  -13.6065   26.3679 C   0  0  2  0  0  0  0  0  0  0  0  0
    7.3728  -14.7303   25.7873 N   0  0  0  0  0  0  0  0  0  0  0  0
    8.6870  -14.0494   27.6209 C   0  0  0  0  0  0  0  0  0  0  0  0
    8.3791  -15.1357   28.1506 O   0  0  0  0  0  0  0  0  0  0  0  0
    9.6358  -13.2615   28.2311 O   0  0  0  0  0  0  0  0  0  0  0  0
  2  3  1  0
  2  1  1  6
  3  4  1  0
  5  6  2  0
  5  2  1  0
  8  7  1  1
  8  9  1  0
  9  5  1  0
 10 11  2  0
 10  8  1  0
 13 12  1  1
 13 14  1  0
 15 13  1  0
 15 16  1  1
 16 10  1  0
 17 15  1  0
 18 17  2  0
 19 17  1  0
M  END
$$$$
