CAV.pdb
     RDKit          3D

 19 18  0  0  1  0  0  0  0  0999 V2000
    9.0308  -16.6810   20.1510 N   0  0  0  0  0  0  0  0  0  0  0  0
    8.4004  -15.3902   20.3307 C   0  0  1  0  0  0  0  0  0  0  0  0
    7.4504  -15.1337   19.1799 C   0  0  0  0  0  0  0  0  0  0  0  0
    6.8585  -13.4222   19.2884 S   0  0  0  0  0  0  0  0  0  0  0  0
    7.6985  -15.3944   21.6340 C   0  0  0  0  0  0  0  0  0  0  0  0
    7.1603  -14.3399   22.0404 O   0  0  0  0  0  0  0  0  0  0  0  0
    7.0277  -18.0498   24.2328 C   0  0  0  0  0  0  0  0  0  0  0  0
    7.1254  -16.6152   23.7290 C   0  0  2  0  0  0  0  0  0  0  0  0
    7.6516  -16.6098   22.4025 N   0  0  0  0  0  0  0  0  0  0  0  0
    7.9960  -15.8493   24.6541 C   0  0  0  0  0  0  0  0  0  0  0  0
    9.2307  -15.7466   24.5254 O   0  0  0  0  0  0  0  0  0  0  0  0
    6.7588  -12.4182   26.2706 C   0  0  0  0  0  0  0  0  0  0  0  0
    7.4333  -13.2700   27.3292 C   0  0  2  0  0  0  0  0  0  0  0  0
    8.2552  -12.3658   28.1826 C   0  0  0  0  0  0  0  0  0  0  0  0
    8.2106  -14.3310   26.6274 C   0  0  2  0  0  0  0  0  0  0  0  0
    7.4271  -15.1765   25.7684 N   0  0  0  0  0  0  0  0  0  0  0  0
    8.9865  -15.1904   27.5350 C   0  0  0  0  0  0  0  0  0  0  0  0
    9.9758  -14.7498   28.1537 O   0  0  0  0  0  0  0  0  0  0  0  0
    8.6263  -16.5061   27.7149 O   0  0  0  0  0  0  0  0  0  0  0  0
  2  3  1  0
  2  1  1  6
  3  4  1  0
  5  6  2  0
  5  2  1  0
  8  7  1  1
  8  9  1  0
  9  5  1  0
 10 11  2  0
 10  8  1  0
 13 12  1  6
 13 14  1  0
 15 13  1  0
 15 16  1  1
 16 10  1  0
 17 15  1  0
 18 17  2  0
 19 17  1  0
M  END
$$$$
