CAV.pdb
     RDKit          3D

 19 18  0  0  1  0  0  0  0  0999 V2000
    7.9037  -16.1706   18.5341 N   0  0  0  0  0  0  0  0  0  0  0  0
    8.3055  -15.1515   19.4807 C   0  0  1  0  0  0  0  0  0  0  0  0
    7.8815  -13.7934   18.9625 C   0  0  0  0  0  0  0  0  0  0  0  0
    8.3800  -12.5325   20.1679 S   0  0  0  0  0  0  0  0  0  0  0  0
    7.6833  -15.4614   20.7875 C   0  0  0  0  0  0  0  0  0  0  0  0
    6.4446  -15.6308   20.8485 O   0  0  0  0  0  0  0  0  0  0  0  0
    8.2567  -17.2783   23.6279 C   0  0  0  0  0  0  0  0  0  0  0  0
    7.9494  -15.8383   23.2360 C   0  0  2  0  0  0  0  0  0  0  0  0
    8.5165  -15.5604   21.9563 N   0  0  0  0  0  0  0  0  0  0  0  0
    8.5056  -14.9383   24.2756 C   0  0  0  0  0  0  0  0  0  0  0  0
    9.7050  -14.6088   24.3439 O   0  0  0  0  0  0  0  0  0  0  0  0
    5.9499  -13.0005   27.2433 C   0  0  0  0  0  0  0  0  0  0  0  0
    7.1052  -12.3398   26.5153 C   0  0  2  0  0  0  0  0  0  0  0  0
    6.5494  -11.6451   25.3194 C   0  0  0  0  0  0  0  0  0  0  0  0
    8.1073  -13.3985   26.2033 C   0  0  2  0  0  0  0  0  0  0  0  0
    7.6524  -14.3966   25.2741 N   0  0  0  0  0  0  0  0  0  0  0  0
    8.6299  -14.0843   27.3953 C   0  0  0  0  0  0  0  0  0  0  0  0
    9.2503  -13.4606   28.2795 O   0  0  0  0  0  0  0  0  0  0  0  0
    8.4387  -15.4379   27.5515 O   0  0  0  0  0  0  0  0  0  0  0  0
  2  3  1  0
  2  1  1  6
  3  4  1  0
  5  6  2  0
  5  2  1  0
  8  7  1  1
  8  9  1  0
  9  5  1  0
 10 11  2  0
 10  8  1  0
 13 12  1  6
 13 14  1  0
 15 13  1  0
 15 16  1  6
 16 10  1  0
 17 15  1  0
 18 17  2  0
 19 17  1  0
M  END
$$$$
