CAV.pdb
     RDKit          3D

 19 18  0  0  1  0  0  0  0  0999 V2000
    7.4373  -16.5459   18.3995 N   0  0  0  0  0  0  0  0  0  0  0  0
    6.8389  -16.6030   19.7166 C   0  0  1  0  0  0  0  0  0  0  0  0
    6.4271  -18.0289   20.0167 C   0  0  0  0  0  0  0  0  0  0  0  0
    4.7679  -18.3073   19.3375 S   0  0  0  0  0  0  0  0  0  0  0  0
    7.8259  -16.0967   20.6966 C   0  0  0  0  0  0  0  0  0  0  0  0
    9.0448  -16.2965   20.4936 O   0  0  0  0  0  0  0  0  0  0  0  0
    7.5426  -14.0709   23.8706 C   0  0  0  0  0  0  0  0  0  0  0  0
    8.2794  -14.9312   22.8516 C   0  0  2  0  0  0  0  0  0  0  0  0
    7.3612  -15.3873   21.8589 N   0  0  0  0  0  0  0  0  0  0  0  0
    8.9083  -16.0704   23.5638 C   0  0  0  0  0  0  0  0  0  0  0  0
    8.2939  -17.0921   23.9247 O   0  0  0  0  0  0  0  0  0  0  0  0
   13.1883  -16.4251   23.6761 C   0  0  0  0  0  0  0  0  0  0  0  0
   12.1990  -17.5717   23.5893 C   0  0  2  0  0  0  0  0  0  0  0  0
   11.9371  -17.8363   22.1461 C   0  0  0  0  0  0  0  0  0  0  0  0
   10.9917  -17.1870   24.3749 C   0  0  2  0  0  0  0  0  0  0  0  0
   10.2945  -16.0344   23.8728 N   0  0  0  0  0  0  0  0  0  0  0  0
   11.2631  -16.9735   25.8049 C   0  0  0  0  0  0  0  0  0  0  0  0
   11.6571  -17.9055   26.5340 O   0  0  0  0  0  0  0  0  0  0  0  0
   11.0834  -15.7284   26.3625 O   0  0  0  0  0  0  0  0  0  0  0  0
  2  3  1  0
  2  1  1  6
  3  4  1  0
  5  6  2  0
  5  2  1  0
  8  7  1  1
  8  9  1  0
  9  5  1  0
 10 11  2  0
 10  8  1  0
 13 12  1  6
 13 14  1  0
 15 13  1  0
 15 16  1  6
 16 10  1  0
 17 15  1  0
 18 17  2  0
 19 17  1  0
M  END
$$$$
