QPA.pdb
     RDKit          3D

 22 22  0  0  1  0  0  0  0  0999 V2000
    8.0924  -19.6383   25.4232 N   0  0  0  0  0  0  0  0  0  0  0  0
    6.8815  -19.1603   24.8133 C   0  0  0  0  0  0  0  0  0  0  0  0
    5.7865  -19.5064   25.3334 O   0  0  0  0  0  0  0  0  0  0  0  0
    6.9356  -18.2993   23.6257 C   0  0  0  0  0  0  0  0  0  0  0  0
    6.0445  -17.1043   23.8513 C   0  0  0  0  0  0  0  0  0  0  0  0
    6.5996  -15.8400   23.2312 C   0  0  2  0  0  0  0  0  0  0  0  0
    7.2128  -16.1966   21.9347 N   0  0  0  0  0  0  0  0  0  0  0  0
    7.6025  -15.1519   24.0421 C   0  0  0  0  0  0  0  0  0  0  0  0
    8.8446  -15.3259   23.7603 O   0  0  0  0  0  0  0  0  0  0  0  0
    7.2723  -14.2985   25.1257 N   0  0  0  0  0  0  0  0  0  0  0  0
    5.9226  -13.8694   25.4234 C   0  0  0  0  0  0  0  0  0  0  0  0
    6.1167  -12.5345   26.1479 C   0  0  0  0  0  0  0  0  0  0  0  0
    7.3553  -12.8250   26.9285 C   0  0  0  0  0  0  0  0  0  0  0  0
    8.1630  -13.7201   26.0743 C   0  0  1  0  0  0  0  0  0  0  0  0
    8.9342  -14.7343   26.8415 C   0  0  0  0  0  0  0  0  0  0  0  0
    8.3280  -15.7727   27.2007 O   0  0  0  0  0  0  0  0  0  0  0  0
   12.5284  -15.3015   27.6279 C   0  0  0  0  0  0  0  0  0  0  0  0
   11.0502  -15.6204   27.8879 C   0  0  2  0  0  0  0  0  0  0  0  0
   10.2955  -14.6020   27.1878 N   0  0  0  0  0  0  0  0  0  0  0  0
   10.8173  -15.6021   29.3366 C   0  0  0  0  0  0  0  0  0  0  0  0
   10.1241  -14.6893   29.8445 O   0  0  0  0  0  0  0  0  0  0  0  0
   11.3552  -16.5834   30.1518 O   0  0  0  0  0  0  0  0  0  0  0  0
  2  4  1  0
  2  1  1  0
  3  2  2  0
  5  6  1  0
  5  4  1  0
  6  7  1  6
  8  6  1  0
  8 10  1  0
  9  8  2  0
 10 14  1  0
 11 12  1  0
 11 10  1  0
 12 13  1  0
 13 14  1  0
 14 15  1  1
 15 19  1  0
 16 15  2  0
 18 20  1  0
 18 17  1  1
 19 18  1  0
 20 22  1  0
 21 20  2  0
M  END
$$$$
