QPA.pdb
     RDKit          3D

 22 22  0  0  1  0  0  0  0  0999 V2000
    5.5831  -17.9649   24.0805 N   0  0  0  0  0  0  0  0  0  0  0  0
    6.4440  -18.1345   22.9418 C   0  0  0  0  0  0  0  0  0  0  0  0
    6.7955  -19.3073   22.6415 O   0  0  0  0  0  0  0  0  0  0  0  0
    6.8897  -16.9710   22.1656 C   0  0  0  0  0  0  0  0  0  0  0  0
    6.3085  -15.7242   22.7825 C   0  0  0  0  0  0  0  0  0  0  0  0
    7.2226  -14.5259   22.6424 C   0  0  2  0  0  0  0  0  0  0  0  0
    8.0794  -14.7393   21.4573 N   0  0  0  0  0  0  0  0  0  0  0  0
    8.0850  -14.2779   23.7965 C   0  0  0  0  0  0  0  0  0  0  0  0
    9.3172  -14.6382   23.7308 O   0  0  0  0  0  0  0  0  0  0  0  0
    7.6289  -13.6564   24.9869 N   0  0  0  0  0  0  0  0  0  0  0  0
    6.3061  -13.0890   25.1369 C   0  0  0  0  0  0  0  0  0  0  0  0
    6.4922  -12.0103   26.2077 C   0  0  0  0  0  0  0  0  0  0  0  0
    7.4894  -12.6766   27.0961 C   0  0  0  0  0  0  0  0  0  0  0  0
    8.3535  -13.4710   26.1987 C   0  0  1  0  0  0  0  0  0  0  0  0
    8.8164  -14.7497   26.8009 C   0  0  0  0  0  0  0  0  0  0  0  0
    7.9877  -15.6893   26.8731 O   0  0  0  0  0  0  0  0  0  0  0  0
   12.0219  -16.3729   27.5847 C   0  0  0  0  0  0  0  0  0  0  0  0
   10.5397  -16.1954   27.9400 C   0  0  2  0  0  0  0  0  0  0  0  0
   10.1205  -14.9700   27.2923 N   0  0  0  0  0  0  0  0  0  0  0  0
   10.4147  -16.1351   29.4008 C   0  0  0  0  0  0  0  0  0  0  0  0
   10.0883  -15.0586   29.9541 O   0  0  0  0  0  0  0  0  0  0  0  0
   10.6534  -17.2559   30.1779 O   0  0  0  0  0  0  0  0  0  0  0  0
  2  4  1  0
  2  1  1  0
  3  2  2  0
  5  6  1  0
  5  4  1  0
  6  7  1  6
  8  6  1  0
  8 10  1  0
  9  8  2  0
 10 14  1  0
 11 12  1  0
 11 10  1  0
 12 13  1  0
 13 14  1  0
 14 15  1  1
 15 19  1  0
 16 15  2  0
 18 20  1  0
 18 17  1  1
 19 18  1  0
 20 22  1  0
 21 20  2  0
M  END
$$$$
