QPA.pdb
     RDKit          3D

 22 22  0  0  1  0  0  0  0  0999 V2000
    6.0813  -18.7879   16.8928 N   0  0  0  0  0  0  0  0  0  0  0  0
    7.4740  -19.1298   16.9947 C   0  0  0  0  0  0  0  0  0  0  0  0
    7.7669  -20.3332   17.2297 O   0  0  0  0  0  0  0  0  0  0  0  0
    8.5074  -18.1007   16.8282 C   0  0  0  0  0  0  0  0  0  0  0  0
    7.8358  -16.7642   16.6390 C   0  0  0  0  0  0  0  0  0  0  0  0
    8.8240  -15.6188   16.5894 C   0  0  2  0  0  0  0  0  0  0  0  0
    9.9272  -16.0044   15.6845 N   0  0  0  0  0  0  0  0  0  0  0  0
    9.3961  -15.2500   17.8831 C   0  0  0  0  0  0  0  0  0  0  0  0
   10.5700  -15.6811   18.1806 O   0  0  0  0  0  0  0  0  0  0  0  0
    8.7193  -14.4367   18.8276 N   0  0  0  0  0  0  0  0  0  0  0  0
    7.4147  -13.8557   18.5936 C   0  0  0  0  0  0  0  0  0  0  0  0
    7.4060  -12.6104   19.4847 C   0  0  0  0  0  0  0  0  0  0  0  0
    8.1690  -13.1136   20.6646 C   0  0  0  0  0  0  0  0  0  0  0  0
    9.1764  -14.0465   20.1186 C   0  0  1  0  0  0  0  0  0  0  0  0
    9.4576  -15.2032   21.0101 C   0  0  0  0  0  0  0  0  0  0  0  0
    8.6629  -16.1735   20.9679 O   0  0  0  0  0  0  0  0  0  0  0  0
   12.3418  -16.6455   22.6695 C   0  0  0  0  0  0  0  0  0  0  0  0
   10.8267  -16.4151   22.7463 C   0  0  2  0  0  0  0  0  0  0  0  0
   10.5548  -15.2764   21.8940 N   0  0  0  0  0  0  0  0  0  0  0  0
   10.4625  -16.1736   24.1471 C   0  0  0  0  0  0  0  0  0  0  0  0
   10.6020  -17.0879   24.9934 O   0  0  0  0  0  0  0  0  0  0  0  0
    9.9652  -14.9448   24.5467 O   0  0  0  0  0  0  0  0  0  0  0  0
  2  4  1  0
  2  1  1  0
  3  2  2  0
  5  6  1  0
  5  4  1  0
  6  7  1  6
  8  6  1  0
  8 10  1  0
  9  8  2  0
 10 14  1  0
 11 12  1  0
 11 10  1  0
 12 13  1  0
 13 14  1  0
 14 15  1  1
 15 19  1  0
 16 15  2  0
 18 20  1  0
 18 17  1  1
 19 18  1  0
 20 22  1  0
 21 20  2  0
M  END
$$$$
