QPA.pdb
     RDKit          3D

 22 22  0  0  1  0  0  0  0  0999 V2000
    6.8121  -20.3379   16.0952 N   0  0  0  0  0  0  0  0  0  0  0  0
    6.2222  -19.0297   16.0104 C   0  0  0  0  0  0  0  0  0  0  0  0
    4.9837  -18.9297   16.2237 O   0  0  0  0  0  0  0  0  0  0  0  0
    7.0478  -17.8603   15.6854 C   0  0  0  0  0  0  0  0  0  0  0  0
    7.7479  -17.3971   16.9377 C   0  0  0  0  0  0  0  0  0  0  0  0
    8.5330  -16.1203   16.7263 C   0  0  2  0  0  0  0  0  0  0  0  0
    9.5602  -16.3795   15.6958 N   0  0  0  0  0  0  0  0  0  0  0  0
    9.1988  -15.6082   17.9227 C   0  0  0  0  0  0  0  0  0  0  0  0
   10.3730  -16.0471   18.2074 O   0  0  0  0  0  0  0  0  0  0  0  0
    8.6129  -14.6473   18.7858 N   0  0  0  0  0  0  0  0  0  0  0  0
    7.3791  -13.9519   18.4886 C   0  0  0  0  0  0  0  0  0  0  0  0
    7.5041  -12.6398   19.2680 C   0  0  0  0  0  0  0  0  0  0  0  0
    8.2069  -13.1171   20.4952 C   0  0  0  0  0  0  0  0  0  0  0  0
    9.1081  -14.1971   20.0428 C   0  0  1  0  0  0  0  0  0  0  0  0
    9.2616  -15.2950   21.0343 C   0  0  0  0  0  0  0  0  0  0  0  0
    8.2666  -16.0309   21.2421 O   0  0  0  0  0  0  0  0  0  0  0  0
   11.5598  -17.6259   22.1480 C   0  0  0  0  0  0  0  0  0  0  0  0
   10.5750  -16.6085   22.7393 C   0  0  2  0  0  0  0  0  0  0  0  0
   10.4483  -15.5582   21.7506 N   0  0  0  0  0  0  0  0  0  0  0  0
   11.1154  -16.1236   24.0144 C   0  0  0  0  0  0  0  0  0  0  0  0
   11.6156  -14.9760   24.0827 O   0  0  0  0  0  0  0  0  0  0  0  0
   11.0797  -16.9200   25.1463 O   0  0  0  0  0  0  0  0  0  0  0  0
  2  4  1  0
  2  1  1  0
  3  2  2  0
  5  6  1  0
  5  4  1  0
  6  7  1  6
  8  6  1  0
  8 10  1  0
  9  8  2  0
 10 14  1  0
 11 12  1  0
 11 10  1  0
 12 13  1  0
 13 14  1  0
 14 15  1  1
 15 19  1  0
 16 15  2  0
 18 20  1  0
 18 17  1  6
 19 18  1  0
 20 22  1  0
 21 20  2  0
M  END
$$$$
