QPA.pdb
     RDKit          3D

 22 22  0  0  1  0  0  0  0  0999 V2000
    5.9789  -18.4592   16.6428 N   0  0  0  0  0  0  0  0  0  0  0  0
    7.1427  -18.8395   17.3962 C   0  0  0  0  0  0  0  0  0  0  0  0
    7.1045  -19.9327   18.0228 O   0  0  0  0  0  0  0  0  0  0  0  0
    8.3271  -17.9728   17.4246 C   0  0  0  0  0  0  0  0  0  0  0  0
    8.0291  -16.7175   16.6447 C   0  0  0  0  0  0  0  0  0  0  0  0
    9.1569  -15.7101   16.7115 C   0  0  2  0  0  0  0  0  0  0  0  0
   10.3291  -16.2884   16.0217 N   0  0  0  0  0  0  0  0  0  0  0  0
    9.5584  -15.3323   18.0654 C   0  0  0  0  0  0  0  0  0  0  0  0
   10.6316  -15.8449   18.5531 O   0  0  0  0  0  0  0  0  0  0  0  0
    8.8217  -14.4247   18.8685 N   0  0  0  0  0  0  0  0  0  0  0  0
    7.6351  -13.7336   18.4118 C   0  0  0  0  0  0  0  0  0  0  0  0
    7.6056  -12.4606   19.2623 C   0  0  0  0  0  0  0  0  0  0  0  0
    8.1159  -12.9884   20.5617 C   0  0  0  0  0  0  0  0  0  0  0  0
    9.1014  -14.0309   20.2081 C   0  0  1  0  0  0  0  0  0  0  0  0
    9.1208  -15.1747   21.1585 C   0  0  0  0  0  0  0  0  0  0  0  0
    8.1547  -15.9747   21.1217 O   0  0  0  0  0  0  0  0  0  0  0  0
   11.3656  -17.3812   22.6617 C   0  0  0  0  0  0  0  0  0  0  0  0
   10.1489  -16.5205   23.0266 C   0  0  2  0  0  0  0  0  0  0  0  0
   10.1510  -15.4141   22.0923 N   0  0  0  0  0  0  0  0  0  0  0  0
   10.2876  -16.0845   24.4207 C   0  0  0  0  0  0  0  0  0  0  0  0
   10.2549  -16.9316   25.3444 O   0  0  0  0  0  0  0  0  0  0  0  0
   10.4546  -14.7453   24.7296 O   0  0  0  0  0  0  0  0  0  0  0  0
  2  4  1  0
  2  1  1  0
  3  2  2  0
  5  6  1  0
  5  4  1  0
  6  7  1  1
  8  6  1  0
  8 10  1  0
  9  8  2  0
 10 14  1  0
 11 12  1  0
 11 10  1  0
 12 13  1  0
 13 14  1  0
 14 15  1  1
 15 19  1  0
 16 15  2  0
 18 20  1  0
 18 17  1  6
 19 18  1  0
 20 22  1  0
 21 20  2  0
M  END
$$$$
