QPA.pdb
     RDKit          3D

 22 22  0  0  1  0  0  0  0  0999 V2000
    6.1828  -19.3534   24.1019 N   0  0  0  0  0  0  0  0  0  0  0  0
    5.6993  -18.8801   22.8334 C   0  0  0  0  0  0  0  0  0  0  0  0
    4.9570  -19.6488   22.1647 O   0  0  0  0  0  0  0  0  0  0  0  0
    6.0669  -17.5444   22.3479 C   0  0  0  0  0  0  0  0  0  0  0  0
    6.8700  -16.8441   23.4144 C   0  0  0  0  0  0  0  0  0  0  0  0
    7.3192  -15.4622   22.9905 C   0  0  2  0  0  0  0  0  0  0  0  0
    8.0493  -15.5899   21.7119 N   0  0  0  0  0  0  0  0  0  0  0  0
    8.1858  -14.7809   23.9505 C   0  0  0  0  0  0  0  0  0  0  0  0
    9.4591  -14.8988   23.8196 O   0  0  0  0  0  0  0  0  0  0  0  0
    7.6902  -13.9929   25.0205 N   0  0  0  0  0  0  0  0  0  0  0  0
    6.3295  -13.5052   25.0915 C   0  0  0  0  0  0  0  0  0  0  0  0
    6.4398  -12.2432   25.9516 C   0  0  0  0  0  0  0  0  0  0  0  0
    7.4879  -12.6674   26.9259 C   0  0  0  0  0  0  0  0  0  0  0  0
    8.4046  -13.5436   26.1676 C   0  0  1  0  0  0  0  0  0  0  0  0
    8.9641  -14.6584   26.9776 C   0  0  0  0  0  0  0  0  0  0  0  0
    8.2451  -15.6740   27.1400 O   0  0  0  0  0  0  0  0  0  0  0  0
   12.3206  -15.5517   28.3022 C   0  0  0  0  0  0  0  0  0  0  0  0
   10.8002  -15.7585   28.3104 C   0  0  2  0  0  0  0  0  0  0  0  0
   10.2443  -14.6447   27.5705 N   0  0  0  0  0  0  0  0  0  0  0  0
   10.3426  -15.7970   29.7040 C   0  0  0  0  0  0  0  0  0  0  0  0
    9.7679  -14.7988   30.1987 O   0  0  0  0  0  0  0  0  0  0  0  0
   10.5385  -16.9257   30.4817 O   0  0  0  0  0  0  0  0  0  0  0  0
  2  4  1  0
  2  1  1  0
  3  2  2  0
  5  6  1  0
  5  4  1  0
  6  7  1  6
  8  6  1  0
  8 10  1  0
  9  8  2  0
 10 14  1  0
 11 12  1  0
 11 10  1  0
 12 13  1  0
 13 14  1  0
 14 15  1  1
 15 19  1  0
 16 15  2  0
 18 20  1  0
 18 17  1  1
 19 18  1  0
 20 22  1  0
 21 20  2  0
M  END
$$$$
