QPA.pdb
     RDKit          3D

 22 22  0  0  1  0  0  0  0  0999 V2000
    3.6650  -17.7105   21.9412 N   0  0  0  0  0  0  0  0  0  0  0  0
    4.9892  -18.2321   22.1436 C   0  0  0  0  0  0  0  0  0  0  0  0
    5.2414  -18.7792   23.2510 O   0  0  0  0  0  0  0  0  0  0  0  0
    6.0018  -18.1234   21.0864 C   0  0  0  0  0  0  0  0  0  0  0  0
    5.4621  -17.2463   19.9854 C   0  0  0  0  0  0  0  0  0  0  0  0
    6.4898  -16.9639   18.9106 C   0  0  2  0  0  0  0  0  0  0  0  0
    6.7594  -18.2266   18.1913 N   0  0  0  0  0  0  0  0  0  0  0  0
    7.7596  -16.4342   19.4045 C   0  0  0  0  0  0  0  0  0  0  0  0
    8.7599  -17.2349   19.5084 O   0  0  0  0  0  0  0  0  0  0  0  0
    7.9435  -15.0773   19.7738 N   0  0  0  0  0  0  0  0  0  0  0  0
    6.8819  -14.0939   19.7613 C   0  0  0  0  0  0  0  0  0  0  0  0
    7.6177  -12.7668   19.5558 C   0  0  0  0  0  0  0  0  0  0  0  0
    8.8533  -13.0130   20.3561 C   0  0  0  0  0  0  0  0  0  0  0  0
    9.1509  -14.4513   20.1961 C   0  0  1  0  0  0  0  0  0  0  0  0
    9.7341  -15.0748   21.4139 C   0  0  0  0  0  0  0  0  0  0  0  0
    8.9371  -15.5290   22.2702 O   0  0  0  0  0  0  0  0  0  0  0  0
   11.2751  -17.3314   22.6852 C   0  0  0  0  0  0  0  0  0  0  0  0
   11.6752  -15.8563   22.8206 C   0  0  2  0  0  0  0  0  0  0  0  0
   11.1181  -15.1863   21.6640 N   0  0  0  0  0  0  0  0  0  0  0  0
   13.1393  -15.7734   22.8722 C   0  0  0  0  0  0  0  0  0  0  0  0
   13.7751  -15.3568   21.8753 O   0  0  0  0  0  0  0  0  0  0  0  0
   13.8293  -16.1509   24.0117 O   0  0  0  0  0  0  0  0  0  0  0  0
  2  4  1  0
  2  1  1  0
  3  2  2  0
  5  6  1  0
  5  4  1  0
  6  7  1  1
  8  6  1  0
  8 10  1  0
  9  8  2  0
 10 14  1  0
 11 12  1  0
 11 10  1  0
 12 13  1  0
 13 14  1  0
 14 15  1  1
 15 19  1  0
 16 15  2  0
 18 20  1  0
 18 17  1  6
 19 18  1  0
 20 22  1  0
 21 20  2  0
M  END
$$$$
