QPA.pdb
     RDKit          3D

 22 22  0  0  1  0  0  0  0  0999 V2000
    5.7434  -17.7854   23.2871 N   0  0  0  0  0  0  0  0  0  0  0  0
    6.1968  -19.0384   22.7475 C   0  0  0  0  0  0  0  0  0  0  0  0
    6.4260  -19.9771   23.5571 O   0  0  0  0  0  0  0  0  0  0  0  0
    6.3816  -19.2027   21.3006 C   0  0  0  0  0  0  0  0  0  0  0  0
    6.0276  -17.9071   20.6157 C   0  0  0  0  0  0  0  0  0  0  0  0
    7.1263  -17.4156   19.6979 C   0  0  2  0  0  0  0  0  0  0  0  0
    7.8791  -18.5916   19.2137 N   0  0  0  0  0  0  0  0  0  0  0  0
    8.0699  -16.4872   20.3182 C   0  0  0  0  0  0  0  0  0  0  0  0
    9.1503  -16.9602   20.8295 O   0  0  0  0  0  0  0  0  0  0  0  0
    7.8528  -15.0872   20.3823 N   0  0  0  0  0  0  0  0  0  0  0  0
    6.6659  -14.4374   19.8690 C   0  0  0  0  0  0  0  0  0  0  0  0
    7.1414  -13.0199   19.5384 C   0  0  0  0  0  0  0  0  0  0  0  0
    8.1033  -12.7870   20.6555 C   0  0  0  0  0  0  0  0  0  0  0  0
    8.7231  -14.1005   20.9271 C   0  0  1  0  0  0  0  0  0  0  0  0
    9.0294  -14.3252   22.3650 C   0  0  0  0  0  0  0  0  0  0  0  0
    9.9627  -13.6553   22.8699 O   0  0  0  0  0  0  0  0  0  0  0  0
    7.2179  -15.6744   25.2445 C   0  0  0  0  0  0  0  0  0  0  0  0
    8.5843  -15.3818   24.6107 C   0  0  2  0  0  0  0  0  0  0  0  0
    8.3404  -15.2387   23.1905 N   0  0  0  0  0  0  0  0  0  0  0  0
    9.4896  -16.4944   24.9203 C   0  0  0  0  0  0  0  0  0  0  0  0
    9.8100  -16.7239   26.1104 O   0  0  0  0  0  0  0  0  0  0  0  0
    9.9956  -17.2961   23.9114 O   0  0  0  0  0  0  0  0  0  0  0  0
  2  4  1  0
  2  1  1  0
  3  2  2  0
  5  6  1  0
  5  4  1  0
  6  7  1  1
  8  6  1  0
  8 10  1  0
  9  8  2  0
 10 14  1  0
 11 12  1  0
 11 10  1  0
 12 13  1  0
 13 14  1  0
 14 15  1  1
 15 19  1  0
 16 15  2  0
 18 20  1  0
 18 17  1  1
 19 18  1  0
 20 22  1  0
 21 20  2  0
M  END
$$$$
