EAC.pdb
     RDKit          3D

 21 20  0  0  1  0  0  0  0  0999 V2000
   22.7642  -17.3353  -17.1846 N   0  0  0  0  0  0  0  0  0  0  0  0
   22.7526  -18.7344  -16.9018 C   0  0  1  0  0  0  0  0  0  0  0  0
   23.8049  -19.5582  -17.5740 C   0  0  0  0  0  0  0  0  0  0  0  0
   25.0221  -18.7633  -17.8904 C   0  0  0  0  0  0  0  0  0  0  0  0
   26.1217  -18.7584  -16.9525 C   0  0  0  0  0  0  0  0  0  0  0  0
   26.5421  -19.7590  -16.3648 O   0  0  0  0  0  0  0  0  0  0  0  0
   22.8472  -18.9296  -15.4295 C   0  0  0  0  0  0  0  0  0  0  0  0
   23.3196  -17.9758  -14.7456 O   0  0  0  0  0  0  0  0  0  0  0  0
   26.7409  -17.5092  -16.7087 O   0  0  0  0  0  0  0  0  0  0  0  0
   21.6487  -21.5167  -13.0467 C   0  0  0  0  0  0  0  0  0  0  0  0
   22.4586  -20.2880  -13.4201 C   0  0  2  0  0  0  0  0  0  0  0  0
   22.4190  -20.1423  -14.8607 N   0  0  0  0  0  0  0  0  0  0  0  0
   23.8574  -20.5435  -12.9717 C   0  0  0  0  0  0  0  0  0  0  0  0
   24.5965  -21.2099  -13.7015 O   0  0  0  0  0  0  0  0  0  0  0  0
   24.3721  -20.0521  -11.7416 N   0  0  0  0  0  0  0  0  0  0  0  0
   25.6847  -20.3274  -11.2446 C   0  0  1  0  0  0  0  0  0  0  0  0
   25.9256  -19.7140   -9.8677 C   0  0  0  0  0  0  0  0  0  0  0  0
   25.0099  -20.7252   -8.6704 S   0  0  0  0  0  0  0  0  0  0  0  0
   26.0650  -21.7462  -11.2730 C   0  0  0  0  0  0  0  0  0  0  0  0
   25.1336  -22.5920  -11.3497 O   0  0  0  0  0  0  0  0  0  0  0  0
   27.3410  -22.2428  -11.2239 O   0  0  0  0  0  0  0  0  0  0  0  0
  2  1  1  1
  3  2  1  0
  4  5  1  0
  4  3  1  0
  5  6  2  0
  7  2  1  0
  8  7  2  0
  9  5  1  0
 11 10  1  6
 11 13  1  0
 11 12  1  0
 12  7  1  0
 13 15  1  0
 14 13  2  0
 15 16  1  0
 16 19  1  0
 16 17  1  1
 18 17  1  0
 19 20  2  0
 19 21  1  0
M  END
$$$$
