EAC.pdb
     RDKit          3D

 21 20  0  0  1  0  0  0  0  0999 V2000
   19.5330  -14.2240  -17.1717 N   0  0  0  0  0  0  0  0  0  0  0  0
   19.0027  -12.9130  -17.3662 C   0  0  1  0  0  0  0  0  0  0  0  0
   17.8935  -12.5011  -16.4509 C   0  0  0  0  0  0  0  0  0  0  0  0
   16.7493  -13.4511  -16.4936 C   0  0  0  0  0  0  0  0  0  0  0  0
   16.4285  -14.2184  -15.3115 C   0  0  0  0  0  0  0  0  0  0  0  0
   15.5108  -15.0407  -15.2412 O   0  0  0  0  0  0  0  0  0  0  0  0
   20.1108  -11.9248  -17.2652 C   0  0  0  0  0  0  0  0  0  0  0  0
   20.8931  -12.0273  -16.2763 O   0  0  0  0  0  0  0  0  0  0  0  0
   17.2362  -13.9929  -14.1713 O   0  0  0  0  0  0  0  0  0  0  0  0
   21.4445   -9.2160  -19.4330 C   0  0  0  0  0  0  0  0  0  0  0  0
   21.3094   -9.9558  -18.1141 C   0  0  2  0  0  0  0  0  0  0  0  0
   20.2467  -10.9306  -18.2505 N   0  0  0  0  0  0  0  0  0  0  0  0
   20.9403   -8.9393  -17.0878 C   0  0  0  0  0  0  0  0  0  0  0  0
   19.7437   -8.7180  -16.8829 O   0  0  0  0  0  0  0  0  0  0  0  0
   21.9081   -8.2174  -16.3381 N   0  0  0  0  0  0  0  0  0  0  0  0
   21.6043   -7.1427  -15.4445 C   0  0  1  0  0  0  0  0  0  0  0  0
   22.4877   -7.1543  -14.1997 C   0  0  0  0  0  0  0  0  0  0  0  0
   21.8976   -5.8201  -13.1197 S   0  0  0  0  0  0  0  0  0  0  0  0
   21.5787   -5.8141  -16.0711 C   0  0  0  0  0  0  0  0  0  0  0  0
   22.5309   -5.5218  -16.8434 O   0  0  0  0  0  0  0  0  0  0  0  0
   20.6149   -4.8560  -15.8967 O   0  0  0  0  0  0  0  0  0  0  0  0
  2  1  1  1
  3  2  1  0
  4  5  1  0
  4  3  1  0
  5  6  2  0
  7  2  1  0
  8  7  2  0
  9  5  1  0
 11 10  1  6
 11 13  1  0
 11 12  1  0
 12  7  1  0
 13 15  1  0
 14 13  2  0
 15 16  1  0
 16 19  1  0
 16 17  1  1
 18 17  1  0
 19 20  2  0
 19 21  1  0
M  END
$$$$
