EAC.pdb
     RDKit          3D

 21 20  0  0  1  0  0  0  0  0999 V2000
   16.7842  -12.7292  -13.8572 N   0  0  0  0  0  0  0  0  0  0  0  0
   16.4964  -11.3884  -14.2536 C   0  0  1  0  0  0  0  0  0  0  0  0
   15.0851  -11.1026  -14.6593 C   0  0  0  0  0  0  0  0  0  0  0  0
   14.6823  -11.8719  -15.8674 C   0  0  0  0  0  0  0  0  0  0  0  0
   14.4513  -13.2938  -15.7505 C   0  0  0  0  0  0  0  0  0  0  0  0
   13.7384  -13.8164  -14.8891 O   0  0  0  0  0  0  0  0  0  0  0  0
   16.8832  -10.4660  -13.1517 C   0  0  0  0  0  0  0  0  0  0  0  0
   16.3910  -10.6881  -12.0076 O   0  0  0  0  0  0  0  0  0  0  0  0
   15.0977  -14.1209  -16.6999 O   0  0  0  0  0  0  0  0  0  0  0  0
   19.2639   -7.6188  -12.8272 C   0  0  0  0  0  0  0  0  0  0  0  0
   18.1991   -8.5699  -12.3108 C   0  0  2  0  0  0  0  0  0  0  0  0
   17.7627   -9.4006  -13.4142 N   0  0  0  0  0  0  0  0  0  0  0  0
   17.0679   -7.7267  -11.8288 C   0  0  0  0  0  0  0  0  0  0  0  0
   16.2092   -7.3740  -12.6418 O   0  0  0  0  0  0  0  0  0  0  0  0
   16.9392   -7.3141  -10.4749 N   0  0  0  0  0  0  0  0  0  0  0  0
   15.9491   -6.3991   -9.9972 C   0  0  1  0  0  0  0  0  0  0  0  0
   14.5667   -7.0387   -9.8964 C   0  0  0  0  0  0  0  0  0  0  0  0
   14.7544   -8.5520   -8.9118 S   0  0  0  0  0  0  0  0  0  0  0  0
   16.3085   -5.7015   -8.7552 C   0  0  0  0  0  0  0  0  0  0  0  0
   17.3720   -6.0580   -8.1801 O   0  0  0  0  0  0  0  0  0  0  0  0
   15.5963   -4.6953   -8.1574 O   0  0  0  0  0  0  0  0  0  0  0  0
  2  1  1  1
  3  2  1  0
  4  5  1  0
  4  3  1  0
  5  6  2  0
  7  2  1  0
  8  7  2  0
  9  5  1  0
 11 10  1  6
 11 13  1  0
 11 12  1  0
 12  7  1  0
 13 15  1  0
 14 13  2  0
 15 16  1  0
 16 19  1  0
 16 17  1  1
 18 17  1  0
 19 20  2  0
 19 21  1  0
M  END
$$$$
