EAC.pdb
     RDKit          3D

 21 20  0  0  1  0  0  0  0  0999 V2000
   14.2204  -11.7701  -15.6984 N   0  0  0  0  0  0  0  0  0  0  0  0
   15.2350  -11.8289  -14.6961 C   0  0  1  0  0  0  0  0  0  0  0  0
   16.3038  -12.8574  -14.8904 C   0  0  0  0  0  0  0  0  0  0  0  0
   15.7590  -14.2418  -14.8764 C   0  0  0  0  0  0  0  0  0  0  0  0
   16.6430  -15.3479  -15.1659 C   0  0  0  0  0  0  0  0  0  0  0  0
   17.8470  -15.2330  -15.4118 O   0  0  0  0  0  0  0  0  0  0  0  0
   15.8665  -10.4873  -14.5697 C   0  0  0  0  0  0  0  0  0  0  0  0
   15.8817   -9.7524  -15.5994 O   0  0  0  0  0  0  0  0  0  0  0  0
   16.0642  -16.6396  -15.1612 O   0  0  0  0  0  0  0  0  0  0  0  0
   17.3408   -8.5223  -11.7702 C   0  0  0  0  0  0  0  0  0  0  0  0
   17.0095   -8.7746  -13.2302 C   0  0  2  0  0  0  0  0  0  0  0  0
   16.4147  -10.0911  -13.3368 N   0  0  0  0  0  0  0  0  0  0  0  0
   18.3000   -8.7362  -13.9758 C   0  0  0  0  0  0  0  0  0  0  0  0
   19.0181   -9.7397  -13.9607 O   0  0  0  0  0  0  0  0  0  0  0  0
   18.7351   -7.5941  -14.7010 N   0  0  0  0  0  0  0  0  0  0  0  0
   19.9513   -7.5249  -15.4505 C   0  0  1  0  0  0  0  0  0  0  0  0
   19.7145   -7.1406  -16.9087 C   0  0  0  0  0  0  0  0  0  0  0  0
   18.5644   -8.3640  -17.5982 S   0  0  0  0  0  0  0  0  0  0  0  0
   20.9996   -6.6952  -14.8412 C   0  0  0  0  0  0  0  0  0  0  0  0
   22.1618   -6.7906  -15.3195 O   0  0  0  0  0  0  0  0  0  0  0  0
   20.8362   -5.8228  -13.7976 O   0  0  0  0  0  0  0  0  0  0  0  0
  2  1  1  6
  3  2  1  0
  4  5  1  0
  4  3  1  0
  5  6  2  0
  7  2  1  0
  8  7  2  0
  9  5  1  0
 11 10  1  1
 11 13  1  0
 11 12  1  0
 12  7  1  0
 13 15  1  0
 14 13  2  0
 15 16  1  0
 16 19  1  0
 16 17  1  6
 18 17  1  0
 19 20  2  0
 19 21  1  0
M  END
$$$$
