EAC.pdb
     RDKit          3D

 21 20  0  0  1  0  0  0  0  0999 V2000
   17.0464  -11.7654  -14.7120 N   0  0  0  0  0  0  0  0  0  0  0  0
   18.1377  -11.4823  -15.5876 C   0  0  1  0  0  0  0  0  0  0  0  0
   17.7926  -11.2294  -17.0211 C   0  0  0  0  0  0  0  0  0  0  0  0
   17.2740  -12.4494  -17.6965 C   0  0  0  0  0  0  0  0  0  0  0  0
   18.1586  -13.5760  -17.8890 C   0  0  0  0  0  0  0  0  0  0  0  0
   18.3349  -14.4742  -17.0611 O   0  0  0  0  0  0  0  0  0  0  0  0
   18.8934  -10.3162  -15.0550 C   0  0  0  0  0  0  0  0  0  0  0  0
   18.2251   -9.3877  -14.5148 O   0  0  0  0  0  0  0  0  0  0  0  0
   18.8584  -13.6292  -19.1182 O   0  0  0  0  0  0  0  0  0  0  0  0
   22.4748   -9.6458  -14.3877 C   0  0  0  0  0  0  0  0  0  0  0  0
   21.0235   -9.2183  -14.5153 C   0  0  2  0  0  0  0  0  0  0  0  0
   20.2946  -10.2857  -15.1692 N   0  0  0  0  0  0  0  0  0  0  0  0
   21.0099   -7.9950  -15.3674 C   0  0  0  0  0  0  0  0  0  0  0  0
   21.1889   -8.1221  -16.5818 O   0  0  0  0  0  0  0  0  0  0  0  0
   20.7997   -6.6925  -14.8391 N   0  0  0  0  0  0  0  0  0  0  0  0
   20.7524   -5.4977  -15.6238 C   0  0  1  0  0  0  0  0  0  0  0  0
   19.5818   -4.5962  -15.2403 C   0  0  0  0  0  0  0  0  0  0  0  0
   18.0713   -5.5876  -15.4148 S   0  0  0  0  0  0  0  0  0  0  0  0
   22.0140   -4.7463  -15.6718 C   0  0  0  0  0  0  0  0  0  0  0  0
   22.0746   -3.7704  -16.4671 O   0  0  0  0  0  0  0  0  0  0  0  0
   23.1378   -5.0044  -14.9318 O   0  0  0  0  0  0  0  0  0  0  0  0
  2  1  1  1
  3  2  1  0
  4  5  1  0
  4  3  1  0
  5  6  2  0
  7  2  1  0
  8  7  2  0
  9  5  1  0
 11 10  1  6
 11 13  1  0
 11 12  1  0
 12  7  1  0
 13 15  1  0
 14 13  2  0
 15 16  1  0
 16 19  1  0
 16 17  1  1
 18 17  1  0
 19 20  2  0
 19 21  1  0
M  END
$$$$
