EAC.pdb
     RDKit          3D

 21 20  0  0  1  0  0  0  0  0999 V2000
   26.6068  -21.9463  -18.0543 N   0  0  0  0  0  0  0  0  0  0  0  0
   27.6635  -22.5563  -17.3133 C   0  0  1  0  0  0  0  0  0  0  0  0
   29.0137  -22.5575  -17.9573 C   0  0  0  0  0  0  0  0  0  0  0  0
   29.4548  -21.1884  -18.3374 C   0  0  0  0  0  0  0  0  0  0  0  0
   29.1647  -20.7002  -19.6665 C   0  0  0  0  0  0  0  0  0  0  0  0
   29.6431  -21.1705  -20.7025 O   0  0  0  0  0  0  0  0  0  0  0  0
   27.7594  -21.9002  -15.9810 C   0  0  0  0  0  0  0  0  0  0  0  0
   28.4976  -22.4506  -15.1134 O   0  0  0  0  0  0  0  0  0  0  0  0
   28.2688  -19.6083  -19.7588 O   0  0  0  0  0  0  0  0  0  0  0  0
   26.7133  -18.6372  -14.5778 C   0  0  0  0  0  0  0  0  0  0  0  0
   27.1682  -20.0793  -14.4418 C   0  0  2  0  0  0  0  0  0  0  0  0
   27.0402  -20.7167  -15.7362 N   0  0  0  0  0  0  0  0  0  0  0  0
   26.2513  -20.7278  -13.4612 C   0  0  0  0  0  0  0  0  0  0  0  0
   25.2172  -21.2538  -13.8817 O   0  0  0  0  0  0  0  0  0  0  0  0
   26.5195  -20.7645  -12.0660 N   0  0  0  0  0  0  0  0  0  0  0  0
   25.5425  -21.0463  -11.0601 C   0  0  1  0  0  0  0  0  0  0  0  0
   26.0007  -20.6182   -9.6684 C   0  0  0  0  0  0  0  0  0  0  0  0
   24.7095  -21.1375   -8.5032 S   0  0  0  0  0  0  0  0  0  0  0  0
   24.1943  -20.5444  -11.3583 C   0  0  0  0  0  0  0  0  0  0  0  0
   24.0951  -19.3458  -11.7354 O   0  0  0  0  0  0  0  0  0  0  0  0
   23.0274  -21.2563  -11.2660 O   0  0  0  0  0  0  0  0  0  0  0  0
  2  1  1  6
  3  2  1  0
  4  5  1  0
  4  3  1  0
  5  6  2  0
  7  2  1  0
  8  7  2  0
  9  5  1  0
 11 10  1  6
 11 13  1  0
 11 12  1  0
 12  7  1  0
 13 15  1  0
 14 13  2  0
 15 16  1  0
 16 19  1  0
 16 17  1  1
 18 17  1  0
 19 20  2  0
 19 21  1  0
M  END
$$$$
