EAC.pdb
     RDKit          3D

 21 20  0  0  1  0  0  0  0  0999 V2000
   16.3247  -10.6021  -11.8330 N   0  0  0  0  0  0  0  0  0  0  0  0
   16.3834   -9.7963  -13.0099 C   0  0  1  0  0  0  0  0  0  0  0  0
   15.1727   -9.8119  -13.8884 C   0  0  0  0  0  0  0  0  0  0  0  0
   14.6404  -11.1872  -14.0852 C   0  0  0  0  0  0  0  0  0  0  0  0
   13.8758  -11.8033  -13.0246 C   0  0  0  0  0  0  0  0  0  0  0  0
   13.0864  -11.2001  -12.2924 O   0  0  0  0  0  0  0  0  0  0  0  0
   16.6838   -8.3923  -12.6185 C   0  0  0  0  0  0  0  0  0  0  0  0
   16.8021   -7.5421  -13.5478 O   0  0  0  0  0  0  0  0  0  0  0  0
   14.0634  -13.1931  -12.8334 O   0  0  0  0  0  0  0  0  0  0  0  0
   16.9270   -6.5299   -9.4128 C   0  0  0  0  0  0  0  0  0  0  0  0
   17.1721   -6.7054  -10.9009 C   0  0  2  0  0  0  0  0  0  0  0  0
   16.8245   -8.0655  -11.2579 N   0  0  0  0  0  0  0  0  0  0  0  0
   18.6278   -6.4753  -11.1260 C   0  0  0  0  0  0  0  0  0  0  0  0
   19.4282   -7.3138  -10.7028 O   0  0  0  0  0  0  0  0  0  0  0  0
   19.1292   -5.3328  -11.8064 N   0  0  0  0  0  0  0  0  0  0  0  0
   20.4238   -5.2518  -12.4091 C   0  0  1  0  0  0  0  0  0  0  0  0
   20.6684   -6.3742  -13.4143 C   0  0  0  0  0  0  0  0  0  0  0  0
   21.3831   -7.7643  -12.4916 S   0  0  0  0  0  0  0  0  0  0  0  0
   20.7516   -3.9390  -12.9814 C   0  0  0  0  0  0  0  0  0  0  0  0
   19.8051   -3.2761  -13.4847 O   0  0  0  0  0  0  0  0  0  0  0  0
   21.9934   -3.3615  -13.0219 O   0  0  0  0  0  0  0  0  0  0  0  0
  2  1  1  1
  3  2  1  0
  4  5  1  0
  4  3  1  0
  5  6  2  0
  7  2  1  0
  8  7  2  0
  9  5  1  0
 11 10  1  1
 11 13  1  0
 11 12  1  0
 12  7  1  0
 13 15  1  0
 14 13  2  0
 15 16  1  0
 16 19  1  0
 16 17  1  6
 18 17  1  0
 19 20  2  0
 19 21  1  0
M  END
$$$$
