EAC.pdb
     RDKit          3D

 21 20  0  0  1  0  0  0  0  0999 V2000
   14.0762   -9.4525  -13.1855 N   0  0  0  0  0  0  0  0  0  0  0  0
   15.1889   -9.6269  -12.3085 C   0  0  1  0  0  0  0  0  0  0  0  0
   16.2604  -10.5631  -12.7705 C   0  0  0  0  0  0  0  0  0  0  0  0
   15.7886  -11.9731  -12.8231 C   0  0  0  0  0  0  0  0  0  0  0  0
   16.6643  -12.9874  -13.3645 C   0  0  0  0  0  0  0  0  0  0  0  0
   17.7377  -12.7546  -13.9274 O   0  0  0  0  0  0  0  0  0  0  0  0
   15.7927   -8.2966  -12.0250 C   0  0  0  0  0  0  0  0  0  0  0  0
   15.9170   -7.4955  -12.9962 O   0  0  0  0  0  0  0  0  0  0  0  0
   16.2391  -14.3305  -13.2272 O   0  0  0  0  0  0  0  0  0  0  0  0
   16.6793   -6.3916   -8.9804 C   0  0  0  0  0  0  0  0  0  0  0  0
   16.8004   -6.6896  -10.4642 C   0  0  2  0  0  0  0  0  0  0  0  0
   16.1974   -7.9825  -10.7154 N   0  0  0  0  0  0  0  0  0  0  0  0
   18.2578   -6.7377  -10.7746 C   0  0  0  0  0  0  0  0  0  0  0  0
   18.9202   -7.6852  -10.3430 O   0  0  0  0  0  0  0  0  0  0  0  0
   18.9130   -5.7394  -11.5454 N   0  0  0  0  0  0  0  0  0  0  0  0
   20.2210   -5.8778  -12.1072 C   0  0  1  0  0  0  0  0  0  0  0  0
   20.3723   -7.1618  -12.9187 C   0  0  0  0  0  0  0  0  0  0  0  0
   22.0736   -7.1910  -13.5507 S   0  0  0  0  0  0  0  0  0  0  0  0
   20.6898   -4.7082  -12.8625 C   0  0  0  0  0  0  0  0  0  0  0  0
   21.9355   -4.5672  -12.9935 O   0  0  0  0  0  0  0  0  0  0  0  0
   19.9004   -3.7499  -13.4419 O   0  0  0  0  0  0  0  0  0  0  0  0
  2  1  1  6
  3  2  1  0
  4  5  1  0
  4  3  1  0
  5  6  2  0
  7  2  1  0
  8  7  2  0
  9  5  1  0
 11 10  1  1
 11 13  1  0
 11 12  1  0
 12  7  1  0
 13 15  1  0
 14 13  2  0
 15 16  1  0
 16 19  1  0
 16 17  1  6
 18 17  1  0
 19 20  2  0
 19 21  1  0
M  END
$$$$
