AEY.pdb
     RDKit          3D

 27 27  0  0  1  0  0  0  0  0999 V2000
    7.0901  -12.6024   18.6773 C   0  0  0  0  0  0  0  0  0  0  0  0
    8.3767  -13.2162   19.1346 C   0  0  2  0  0  0  0  0  0  0  0  0
    9.1717  -13.7180   18.0424 N   0  0  0  0  0  0  0  0  0  0  0  0
    8.2024  -14.2420   20.2024 C   0  0  0  0  0  0  0  0  0  0  0  0
    7.5045  -13.9859   21.2179 O   0  0  0  0  0  0  0  0  0  0  0  0
    8.8400  -15.4874   20.0317 N   0  0  0  0  0  0  0  0  0  0  0  0
    8.6750  -16.5179   21.0075 C   0  0  1  0  0  0  0  0  0  0  0  0
    9.2232  -17.8217   20.5011 C   0  0  0  0  0  0  0  0  0  0  0  0
    8.9877  -18.0727   19.0451 C   0  0  0  0  0  0  0  0  0  0  0  0
    9.5088  -19.3778   18.5944 C   0  0  0  0  0  0  0  0  0  0  0  0
   10.6859  -19.7376   18.7949 O   0  0  0  0  0  0  0  0  0  0  0  0
    9.4861  -16.2106   22.2494 C   0  0  0  0  0  0  0  0  0  0  0  0
   10.6855  -15.8948   22.0733 O   0  0  0  0  0  0  0  0  0  0  0  0
    8.6501  -20.2437   17.9166 O   0  0  0  0  0  0  0  0  0  0  0  0
   11.1531  -14.2456   30.7628 O   0  0  0  0  0  0  0  0  0  0  0  0
   10.5838  -14.5935   29.5489 C   0  0  0  0  0  0  0  0  0  0  0  0
   10.5173  -15.9189   29.1362 C   0  0  0  0  0  0  0  0  0  0  0  0
    9.9539  -16.2773   27.9311 C   0  0  0  0  0  0  0  0  0  0  0  0
    9.4361  -15.3180   27.0958 C   0  0  0  0  0  0  0  0  0  0  0  0
    8.8199  -15.5633   25.8045 C   0  0  0  0  0  0  0  0  0  0  0  0
    9.7672  -15.8532   24.6709 C   0  0  2  0  0  0  0  0  0  0  0  0
    8.9532  -16.2669   23.5425 N   0  0  0  0  0  0  0  0  0  0  0  0
   10.6965  -16.9889   24.9766 C   0  0  0  0  0  0  0  0  0  0  0  0
   11.8846  -16.8055   25.3610 O   0  0  0  0  0  0  0  0  0  0  0  0
    9.5128  -13.9969   27.5275 C   0  0  0  0  0  0  0  0  0  0  0  0
   10.0682  -13.6303   28.7185 C   0  0  0  0  0  0  0  0  0  0  0  0
   10.2981  -18.3206   24.8538 O   0  0  0  0  0  0  0  0  0  0  0  0
  2  1  1  6
  3  2  1  0
  4  2  1  0
  5  4  2  0
  6  4  1  0
  7  6  1  0
  7  8  1  6
  9  8  1  0
 10  9  1  0
 10 11  2  0
 12 22  1  0
 12  7  1  0
 13 12  2  0
 14 10  1  0
 15 16  1  0
 16 17  2  0
 17 18  1  0
 19 20  1  0
 19 18  2  0
 21 20  1  1
 21 23  1  0
 21 22  1  0
 23 27  1  0
 24 23  2  0
 25 19  1  0
 26 25  2  0
 26 16  1  0
M  END
$$$$
