AEY.pdb
     RDKit          3D

 27 27  0  0  1  0  0  0  0  0999 V2000
   13.0717  -19.4134   18.7583 C   0  0  0  0  0  0  0  0  0  0  0  0
   12.1141  -19.4359   19.9088 C   0  0  2  0  0  0  0  0  0  0  0  0
   10.9611  -20.2623   19.6557 N   0  0  0  0  0  0  0  0  0  0  0  0
   11.7220  -18.0788   20.3857 C   0  0  0  0  0  0  0  0  0  0  0  0
   12.6048  -17.2226   20.6533 O   0  0  0  0  0  0  0  0  0  0  0  0
   10.3474  -17.7991   20.5230 N   0  0  0  0  0  0  0  0  0  0  0  0
    9.9174  -16.5054   20.9505 C   0  0  1  0  0  0  0  0  0  0  0  0
    8.7688  -16.0230   20.1109 C   0  0  0  0  0  0  0  0  0  0  0  0
    8.1230  -17.0806   19.2726 C   0  0  0  0  0  0  0  0  0  0  0  0
    7.6855  -16.5825   17.9540 C   0  0  0  0  0  0  0  0  0  0  0  0
    6.7686  -17.1205   17.3022 O   0  0  0  0  0  0  0  0  0  0  0  0
    9.3700  -16.5652   22.3617 C   0  0  0  0  0  0  0  0  0  0  0  0
    8.8934  -17.6624   22.7335 O   0  0  0  0  0  0  0  0  0  0  0  0
    8.3235  -15.4648   17.4153 O   0  0  0  0  0  0  0  0  0  0  0  0
    9.8023  -14.8922   31.0305 O   0  0  0  0  0  0  0  0  0  0  0  0
    9.8542  -14.8729   29.6465 C   0  0  0  0  0  0  0  0  0  0  0  0
   10.2659  -15.9865   28.9239 C   0  0  0  0  0  0  0  0  0  0  0  0
   10.3220  -15.9794   27.5473 C   0  0  0  0  0  0  0  0  0  0  0  0
    9.9668  -14.8538   26.8452 C   0  0  0  0  0  0  0  0  0  0  0  0
    9.9836  -14.7172   25.4000 C   0  0  0  0  0  0  0  0  0  0  0  0
    9.0996  -15.6708   24.6415 C   0  0  2  0  0  0  0  0  0  0  0  0
    9.3810  -15.4689   23.2318 N   0  0  0  0  0  0  0  0  0  0  0  0
    7.6420  -15.3823   24.8398 C   0  0  0  0  0  0  0  0  0  0  0  0
    6.9895  -15.8395   25.8188 O   0  0  0  0  0  0  0  0  0  0  0  0
    9.5579  -13.7495   27.5875 C   0  0  0  0  0  0  0  0  0  0  0  0
    9.4983  -13.7451   28.9505 C   0  0  0  0  0  0  0  0  0  0  0  0
    6.9204  -14.5869   23.9490 O   0  0  0  0  0  0  0  0  0  0  0  0
  2  1  1  6
  3  2  1  0
  4  2  1  0
  5  4  2  0
  6  4  1  0
  7  6  1  0
  7  8  1  6
  9  8  1  0
 10  9  1  0
 10 11  2  0
 12 22  1  0
 12  7  1  0
 13 12  2  0
 14 10  1  0
 15 16  1  0
 16 17  2  0
 17 18  1  0
 19 20  1  0
 19 18  2  0
 21 20  1  1
 21 23  1  0
 21 22  1  0
 23 27  1  0
 24 23  2  0
 25 19  1  0
 26 25  2  0
 26 16  1  0
M  END
$$$$
