AEY.pdb
     RDKit          3D

 27 27  0  0  1  0  0  0  0  0999 V2000
    7.1220  -13.4286   18.0018 C   0  0  0  0  0  0  0  0  0  0  0  0
    8.4739  -13.6536   18.6041 C   0  0  2  0  0  0  0  0  0  0  0  0
    9.4831  -13.9344   17.6144 N   0  0  0  0  0  0  0  0  0  0  0  0
    8.4794  -14.6687   19.6960 C   0  0  0  0  0  0  0  0  0  0  0  0
    7.6299  -14.6061   20.6224 O   0  0  0  0  0  0  0  0  0  0  0  0
    9.4576  -15.6826   19.6498 N   0  0  0  0  0  0  0  0  0  0  0  0
    9.5045  -16.6817   20.6701 C   0  0  1  0  0  0  0  0  0  0  0  0
   10.6390  -17.6360   20.4274 C   0  0  0  0  0  0  0  0  0  0  0  0
   10.8353  -18.6566   21.5036 C   0  0  0  0  0  0  0  0  0  0  0  0
   11.9239  -19.6070   21.2039 C   0  0  0  0  0  0  0  0  0  0  0  0
   12.9409  -19.2832   20.5590 O   0  0  0  0  0  0  0  0  0  0  0  0
    9.8041  -16.0550   22.0162 C   0  0  0  0  0  0  0  0  0  0  0  0
   10.7934  -15.2885   22.0715 O   0  0  0  0  0  0  0  0  0  0  0  0
   11.8104  -20.9205   21.6603 O   0  0  0  0  0  0  0  0  0  0  0  0
    6.5100  -11.0620   28.4335 O   0  0  0  0  0  0  0  0  0  0  0  0
    6.8076  -11.9899   27.4490 C   0  0  0  0  0  0  0  0  0  0  0  0
    7.7642  -12.9772   27.6529 C   0  0  0  0  0  0  0  0  0  0  0  0
    8.0691  -13.9053   26.6815 C   0  0  0  0  0  0  0  0  0  0  0  0
    7.4246  -13.8764   25.4691 C   0  0  0  0  0  0  0  0  0  0  0  0
    7.6545  -14.7921   24.3663 C   0  0  0  0  0  0  0  0  0  0  0  0
    9.0513  -15.3415   24.2511 C   0  0  2  0  0  0  0  0  0  0  0  0
    9.0346  -16.2984   23.1598 N   0  0  0  0  0  0  0  0  0  0  0  0
    9.4763  -16.0892   25.4789 C   0  0  0  0  0  0  0  0  0  0  0  0
    9.8043  -15.5031   26.5476 O   0  0  0  0  0  0  0  0  0  0  0  0
    6.4705  -12.8797   25.2849 C   0  0  0  0  0  0  0  0  0  0  0  0
    6.1604  -11.9557   26.2395 C   0  0  0  0  0  0  0  0  0  0  0  0
    9.5327  -17.4830   25.5103 O   0  0  0  0  0  0  0  0  0  0  0  0
  2  1  1  6
  3  2  1  0
  4  2  1  0
  5  4  2  0
  6  4  1  0
  7  6  1  0
  7  8  1  6
  9  8  1  0
 10  9  1  0
 10 11  2  0
 12 22  1  0
 12  7  1  0
 13 12  2  0
 14 10  1  0
 15 16  1  0
 16 17  2  0
 17 18  1  0
 19 20  1  0
 19 18  2  0
 21 20  1  1
 21 23  1  0
 21 22  1  0
 23 27  1  0
 24 23  2  0
 25 19  1  0
 26 25  2  0
 26 16  1  0
M  END
$$$$
