AEY.pdb
     RDKit          3D

 27 27  0  0  1  0  0  0  0  0999 V2000
    6.6733  -13.3796   18.8540 C   0  0  0  0  0  0  0  0  0  0  0  0
    8.1181  -13.4501   19.2396 C   0  0  2  0  0  0  0  0  0  0  0  0
    8.9986  -13.4354   18.0991 N   0  0  0  0  0  0  0  0  0  0  0  0
    8.4352  -14.5772   20.1627 C   0  0  0  0  0  0  0  0  0  0  0  0
    7.7447  -14.7598   21.1989 O   0  0  0  0  0  0  0  0  0  0  0  0
    9.5205  -15.4142   19.8338 N   0  0  0  0  0  0  0  0  0  0  0  0
    9.8387  -16.5351   20.6608 C   0  0  1  0  0  0  0  0  0  0  0  0
   10.9248  -17.3644   20.0366 C   0  0  0  0  0  0  0  0  0  0  0  0
   11.1987  -18.6591   20.7346 C   0  0  0  0  0  0  0  0  0  0  0  0
   12.2749  -19.4411   20.0956 C   0  0  0  0  0  0  0  0  0  0  0  0
   13.2024  -19.9642   20.7446 O   0  0  0  0  0  0  0  0  0  0  0  0
   10.4128  -16.0746   21.9848 C   0  0  0  0  0  0  0  0  0  0  0  0
   11.4033  -15.3095   21.9321 O   0  0  0  0  0  0  0  0  0  0  0  0
   12.2536  -19.6014   18.7098 O   0  0  0  0  0  0  0  0  0  0  0  0
   10.6737  -14.5947   30.7529 O   0  0  0  0  0  0  0  0  0  0  0  0
   10.3306  -14.9026   29.4467 C   0  0  0  0  0  0  0  0  0  0  0  0
    9.9689  -13.9112   28.5424 C   0  0  0  0  0  0  0  0  0  0  0  0
    9.6253  -14.2048   27.2410 C   0  0  0  0  0  0  0  0  0  0  0  0
    9.6322  -15.5052   26.7992 C   0  0  0  0  0  0  0  0  0  0  0  0
    9.2904  -15.9456   25.4588 C   0  0  0  0  0  0  0  0  0  0  0  0
   10.3944  -15.8582   24.4390 C   0  0  2  0  0  0  0  0  0  0  0  0
    9.8870  -16.4649   23.2219 N   0  0  0  0  0  0  0  0  0  0  0  0
   11.6091  -16.6393   24.8408 C   0  0  0  0  0  0  0  0  0  0  0  0
   12.6464  -16.0868   25.3009 O   0  0  0  0  0  0  0  0  0  0  0  0
    9.9969  -16.4830   27.7204 C   0  0  0  0  0  0  0  0  0  0  0  0
   10.3391  -16.2039   29.0112 C   0  0  0  0  0  0  0  0  0  0  0  0
   11.6617  -18.0292   24.7290 O   0  0  0  0  0  0  0  0  0  0  0  0
  2  1  1  6
  3  2  1  0
  4  2  1  0
  5  4  2  0
  6  4  1  0
  7  6  1  0
  7  8  1  6
  9  8  1  0
 10  9  1  0
 10 11  2  0
 12 22  1  0
 12  7  1  0
 13 12  2  0
 14 10  1  0
 15 16  1  0
 16 17  2  0
 17 18  1  0
 19 20  1  0
 19 18  2  0
 21 20  1  1
 21 23  1  0
 21 22  1  0
 23 27  1  0
 24 23  2  0
 25 19  1  0
 26 25  2  0
 26 16  1  0
M  END
$$$$
