WRV.pdb
     RDKit          3D

 33 34  0  0  1  0  0  0  0  0999 V2000
   25.5799  -19.1106   -8.4148 N   0  0  0  0  0  0  0  0  0  0  0  0
   26.4042  -20.1784   -8.9681 C   0  0  1  0  0  0  0  0  0  0  0  0
   26.1499  -21.3838   -8.0683 C   0  0  0  0  0  0  0  0  0  0  0  0
   26.5937  -20.9743   -6.7041 C   0  0  0  0  0  0  0  0  0  0  0  0
   25.8429  -20.8527   -5.5363 C   0  0  0  0  0  0  0  0  0  0  0  0
   26.6036  -20.4889   -4.5164 N   0  0  0  0  0  0  0  0  0  0  0  0
   27.8597  -20.3608   -4.9753 C   0  0  0  0  0  0  0  0  0  0  0  0
   28.9895  -19.9933   -4.2769 C   0  0  0  0  0  0  0  0  0  0  0  0
   30.1976  -19.9180   -4.9577 C   0  0  0  0  0  0  0  0  0  0  0  0
   30.2566  -20.2042   -6.2929 C   0  0  0  0  0  0  0  0  0  0  0  0
   29.1000  -20.5728   -6.9750 C   0  0  0  0  0  0  0  0  0  0  0  0
   27.8915  -20.6533   -6.3204 C   0  0  0  0  0  0  0  0  0  0  0  0
   26.0640  -20.4655  -10.3970 C   0  0  0  0  0  0  0  0  0  0  0  0
   24.8725  -20.3158  -10.8165 O   0  0  0  0  0  0  0  0  0  0  0  0
   31.2329  -23.3485  -14.9957 N   0  0  0  0  0  0  0  0  0  0  0  0
   30.1744  -23.7291  -15.8777 C   0  0  0  0  0  0  0  0  0  0  0  0
   30.0990  -24.9007  -16.3914 N   0  0  0  0  0  0  0  0  0  0  0  0
   29.1960  -22.7453  -16.1676 N   0  0  0  0  0  0  0  0  0  0  0  0
   29.3055  -21.3891  -15.6781 C   0  0  0  0  0  0  0  0  0  0  0  0
   28.0184  -20.9949  -14.9543 C   0  0  0  0  0  0  0  0  0  0  0  0
   28.1490  -21.1982  -13.4718 C   0  0  0  0  0  0  0  0  0  0  0  0
   26.9186  -20.7153  -12.7683 C   0  0  2  0  0  0  0  0  0  0  0  0
   27.0388  -20.9125  -11.3408 N   0  0  0  0  0  0  0  0  0  0  0  0
   25.6889  -21.3718  -13.2950 C   0  0  0  0  0  0  0  0  0  0  0  0
   25.5900  -22.6062  -13.1238 O   0  0  0  0  0  0  0  0  0  0  0  0
   29.3294  -25.0860  -17.0783 C   0  0  0  0  0  0  0  0  0  0  0  0
   22.6125  -19.2251  -15.5197 C   0  0  2  0  0  0  0  0  0  0  0  0
   22.3463  -20.2303  -14.4278 C   0  0  0  0  0  0  0  0  0  0  0  0
   20.9839  -20.8662  -14.5541 C   0  0  1  0  0  0  0  0  0  0  0  0
   23.4462  -21.2688  -14.3094 N   0  0  0  0  0  0  0  0  0  0  0  0
   24.6822  -20.6146  -13.9592 C   0  0  0  0  0  0  0  0  0  0  0  0
   23.5511  -22.1189  -15.4895 O   0  0  0  0  0  0  0  0  0  0  0  0
   22.9065  -23.1878  -15.6175 O   0  0  0  0  0  0  0  0  0  0  0  0
  2  1  1  1
  3  2  1  0
  4  3  1  0
  4  5  2  0
  6  5  1  0
  7  6  1  0
  8  7  2  0
  9  8  1  0
 10  9  2  0
 10 11  1  0
 11 12  2  0
 12  7  1  0
 12  4  1  0
 13  2  1  0
 13 14  2  0
 16 17  2  0
 16 15  1  0
 18 16  1  0
 19 20  1  0
 19 18  1  0
 20 21  1  0
 22 21  1  6
 22 23  1  0
 23 13  1  0
 24 22  1  0
 24 25  2  0
 27 26  1  1
 27 28  1  0
 29 30  1  1
 29 27  1  0
 30 24  1  0
 31 29  1  0
 32 31  2  0
 33 31  1  0
M  END
$$$$
