WRV.pdb
     RDKit          3D

 33 34  0  0  1  0  0  0  0  0999 V2000
   28.7615  -20.3752  -16.4309 N   0  0  0  0  0  0  0  0  0  0  0  0
   27.5044  -19.7201  -16.0903 C   0  0  1  0  0  0  0  0  0  0  0  0
   26.9303  -19.2448  -17.4213 C   0  0  0  0  0  0  0  0  0  0  0  0
   27.5287  -17.9003  -17.6658 C   0  0  0  0  0  0  0  0  0  0  0  0
   28.4746  -17.5199  -18.6160 C   0  0  0  0  0  0  0  0  0  0  0  0
   28.7357  -16.2250  -18.5368 N   0  0  0  0  0  0  0  0  0  0  0  0
   27.9815  -15.7211  -17.5458 C   0  0  0  0  0  0  0  0  0  0  0  0
   27.9231  -14.4199  -17.0957 C   0  0  0  0  0  0  0  0  0  0  0  0
   27.0689  -14.1174  -16.0433 C   0  0  0  0  0  0  0  0  0  0  0  0
   26.3049  -15.0958  -15.4711 C   0  0  0  0  0  0  0  0  0  0  0  0
   26.3832  -16.4028  -15.9449 C   0  0  0  0  0  0  0  0  0  0  0  0
   27.2235  -16.7254  -16.9866 C   0  0  0  0  0  0  0  0  0  0  0  0
   26.5678  -20.6428  -15.3750 C   0  0  0  0  0  0  0  0  0  0  0  0
   26.8684  -21.8688  -15.2182 O   0  0  0  0  0  0  0  0  0  0  0  0
   26.5825  -20.6758   -8.2896 N   0  0  0  0  0  0  0  0  0  0  0  0
   25.4408  -21.3618   -8.8083 C   0  0  0  0  0  0  0  0  0  0  0  0
   24.4054  -21.6057   -8.0937 N   0  0  0  0  0  0  0  0  0  0  0  0
   25.4987  -21.7690  -10.1648 N   0  0  0  0  0  0  0  0  0  0  0  0
   26.5455  -21.3191  -11.0552 C   0  0  0  0  0  0  0  0  0  0  0  0
   25.9280  -20.7205  -12.3186 C   0  0  0  0  0  0  0  0  0  0  0  0
   24.9751  -21.6862  -12.9632 C   0  0  0  0  0  0  0  0  0  0  0  0
   24.3711  -21.0816  -14.1927 C   0  0  2  0  0  0  0  0  0  0  0  0
   25.3167  -20.2027  -14.8441 N   0  0  0  0  0  0  0  0  0  0  0  0
   23.1007  -20.3649  -13.8875 C   0  0  0  0  0  0  0  0  0  0  0  0
   23.1992  -19.2657  -13.3003 O   0  0  0  0  0  0  0  0  0  0  0  0
   23.6099  -22.1192   -8.5430 C   0  0  0  0  0  0  0  0  0  0  0  0
   19.7630  -21.2643  -16.2006 C   0  0  2  0  0  0  0  0  0  0  0  0
   20.0601  -19.9357  -15.5526 C   0  0  0  0  0  0  0  0  0  0  0  0
   18.8596  -19.0218  -15.5427 C   0  0  1  0  0  0  0  0  0  0  0  0
   20.6697  -20.0832  -14.1710 N   0  0  0  0  0  0  0  0  0  0  0  0
   21.8413  -20.9191  -14.2549 C   0  0  0  0  0  0  0  0  0  0  0  0
   19.7060  -20.5298  -13.1721 O   0  0  0  0  0  0  0  0  0  0  0  0
   19.7110  -21.6892  -12.6923 O   0  0  0  0  0  0  0  0  0  0  0  0
  2  1  1  6
  3  2  1  0
  4  3  1  0
  4  5  2  0
  6  5  1  0
  7  6  1  0
  8  7  2  0
  9  8  1  0
 10  9  2  0
 10 11  1  0
 11 12  2  0
 12  7  1  0
 12  4  1  0
 13  2  1  0
 13 14  2  0
 16 17  2  0
 16 15  1  0
 18 16  1  0
 19 20  1  0
 19 18  1  0
 20 21  1  0
 22 21  1  1
 22 23  1  0
 23 13  1  0
 24 22  1  0
 24 25  2  0
 27 26  1  6
 27 28  1  0
 29 30  1  6
 29 27  1  0
 30 24  1  0
 31 29  1  0
 32 31  2  0
 33 31  1  0
M  END
$$$$
