WRV.pdb
     RDKit          3D

 33 34  0  0  1  0  0  0  0  0999 V2000
   27.6496  -18.7326   -9.3188 N   0  0  0  0  0  0  0  0  0  0  0  0
   26.9631  -20.0169   -9.2499 C   0  0  1  0  0  0  0  0  0  0  0  0
   26.2335  -20.0064   -7.9101 C   0  0  0  0  0  0  0  0  0  0  0  0
   27.1880  -19.4089   -6.9316 C   0  0  0  0  0  0  0  0  0  0  0  0
   27.6311  -18.0915   -6.8297 C   0  0  0  0  0  0  0  0  0  0  0  0
   28.4599  -17.9450   -5.8085 N   0  0  0  0  0  0  0  0  0  0  0  0
   28.5866  -19.1442   -5.2164 C   0  0  0  0  0  0  0  0  0  0  0  0
   29.3510  -19.4770   -4.1191 C   0  0  0  0  0  0  0  0  0  0  0  0
   29.3386  -20.7923   -3.6735 C   0  0  0  0  0  0  0  0  0  0  0  0
   28.5811  -21.7316   -4.3154 C   0  0  0  0  0  0  0  0  0  0  0  0
   27.8179  -21.3688   -5.4222 C   0  0  0  0  0  0  0  0  0  0  0  0
   27.8155  -20.0710   -5.8816 C   0  0  0  0  0  0  0  0  0  0  0  0
   26.0222  -20.2115  -10.3974 C   0  0  0  0  0  0  0  0  0  0  0  0
   25.0730  -19.3884  -10.5968 O   0  0  0  0  0  0  0  0  0  0  0  0
   24.5905  -26.4706  -15.4058 N   0  0  0  0  0  0  0  0  0  0  0  0
   23.9282  -25.5359  -16.2607 C   0  0  0  0  0  0  0  0  0  0  0  0
   22.8565  -25.8312  -16.8982 N   0  0  0  0  0  0  0  0  0  0  0  0
   24.5118  -24.2495  -16.3789 N   0  0  0  0  0  0  0  0  0  0  0  0
   25.5744  -23.8075  -15.5034 C   0  0  0  0  0  0  0  0  0  0  0  0
   25.0837  -22.6457  -14.6403 C   0  0  0  0  0  0  0  0  0  0  0  0
   25.8713  -22.5508  -13.3648 C   0  0  0  0  0  0  0  0  0  0  0  0
   25.3550  -21.4317  -12.5144 C   0  0  2  0  0  0  0  0  0  0  0  0
   26.1400  -21.3071  -11.3064 N   0  0  0  0  0  0  0  0  0  0  0  0
   23.9096  -21.6039  -12.1949 C   0  0  0  0  0  0  0  0  0  0  0  0
   23.6156  -22.4970  -11.3710 O   0  0  0  0  0  0  0  0  0  0  0  0
   22.4460  -25.1030  -17.5304 C   0  0  0  0  0  0  0  0  0  0  0  0
   20.8157  -18.9986  -13.8322 C   0  0  2  0  0  0  0  0  0  0  0  0
   20.8587  -19.5828  -12.4428 C   0  0  0  0  0  0  0  0  0  0  0  0
   19.4962  -19.6250  -11.7964 C   0  0  1  0  0  0  0  0  0  0  0  0
   21.5475  -20.9340  -12.3987 N   0  0  0  0  0  0  0  0  0  0  0  0
   22.9217  -20.7810  -12.8071 C   0  0  0  0  0  0  0  0  0  0  0  0
   20.8289  -21.9601  -13.1449 O   0  0  0  0  0  0  0  0  0  0  0  0
   21.0567  -22.2073  -14.3539 O   0  0  0  0  0  0  0  0  0  0  0  0
  2  1  1  6
  3  2  1  0
  4  3  1  0
  4  5  2  0
  6  5  1  0
  7  6  1  0
  8  7  2  0
  9  8  1  0
 10  9  2  0
 10 11  1  0
 11 12  2  0
 12  7  1  0
 12  4  1  0
 13  2  1  0
 13 14  2  0
 16 17  2  0
 16 15  1  0
 18 16  1  0
 19 20  1  0
 19 18  1  0
 20 21  1  0
 22 21  1  1
 22 23  1  0
 23 13  1  0
 24 22  1  0
 24 25  2  0
 27 26  1  1
 27 28  1  0
 29 30  1  1
 29 27  1  0
 30 24  1  0
 31 29  1  0
 32 31  2  0
 33 31  1  0
M  END
$$$$
