WRV.pdb
     RDKit          3D

 33 34  0  0  1  0  0  0  0  0999 V2000
   25.5173  -16.3709  -17.3797 N   0  0  0  0  0  0  0  0  0  0  0  0
   26.2475  -17.2527  -16.4770 C   0  0  1  0  0  0  0  0  0  0  0  0
   26.3503  -16.4816  -15.1647 C   0  0  0  0  0  0  0  0  0  0  0  0
   27.2840  -15.3488  -15.4302 C   0  0  0  0  0  0  0  0  0  0  0  0
   27.1840  -14.0169  -15.0322 C   0  0  0  0  0  0  0  0  0  0  0  0
   28.2301  -13.3173  -15.4415 N   0  0  0  0  0  0  0  0  0  0  0  0
   29.0382  -14.1549  -16.1125 C   0  0  0  0  0  0  0  0  0  0  0  0
   30.2400  -13.8726  -16.7250 C   0  0  0  0  0  0  0  0  0  0  0  0
   30.9133  -14.8991  -17.3743 C   0  0  0  0  0  0  0  0  0  0  0  0
   30.3884  -16.1609  -17.4005 C   0  0  0  0  0  0  0  0  0  0  0  0
   29.1721  -16.4191  -16.7738 C   0  0  0  0  0  0  0  0  0  0  0  0
   28.4871  -15.4167  -16.1249 C   0  0  0  0  0  0  0  0  0  0  0  0
   25.5573  -18.5688  -16.2996 C   0  0  0  0  0  0  0  0  0  0  0  0
   24.2875  -18.6274  -16.2532 O   0  0  0  0  0  0  0  0  0  0  0  0
   27.1595  -26.7655  -16.3391 N   0  0  0  0  0  0  0  0  0  0  0  0
   25.7330  -26.7636  -16.4300 C   0  0  0  0  0  0  0  0  0  0  0  0
   25.0319  -27.8151  -16.2176 N   0  0  0  0  0  0  0  0  0  0  0  0
   25.1135  -25.5349  -16.7700 N   0  0  0  0  0  0  0  0  0  0  0  0
   25.8803  -24.3358  -17.0254 C   0  0  0  0  0  0  0  0  0  0  0  0
   25.9854  -23.5067  -15.7459 C   0  0  0  0  0  0  0  0  0  0  0  0
   26.6451  -22.1839  -16.0126 C   0  0  0  0  0  0  0  0  0  0  0  0
   25.6348  -21.0794  -15.9737 C   0  0  2  0  0  0  0  0  0  0  0  0
   26.2741  -19.7983  -16.1763 N   0  0  0  0  0  0  0  0  0  0  0  0
   24.8546  -21.0906  -14.7040 C   0  0  0  0  0  0  0  0  0  0  0  0
   25.4350  -20.6680  -13.6807 O   0  0  0  0  0  0  0  0  0  0  0  0
   24.0046  -27.7682  -16.4197 C   0  0  0  0  0  0  0  0  0  0  0  0
   21.8641  -19.2841  -13.9242 C   0  0  2  0  0  0  0  0  0  0  0  0
   21.5584  -20.7103  -13.5422 C   0  0  0  0  0  0  0  0  0  0  0  0
   20.5374  -21.3421  -14.4558 C   0  0  2  0  0  0  0  0  0  0  0  0
   22.8080  -21.5617  -13.4162 N   0  0  0  0  0  0  0  0  0  0  0  0
   23.5115  -21.5629  -14.6746 C   0  0  0  0  0  0  0  0  0  0  0  0
   22.5327  -22.8979  -12.9015 O   0  0  0  0  0  0  0  0  0  0  0  0
   22.7118  -23.9385  -13.5794 O   0  0  0  0  0  0  0  0  0  0  0  0
  2  1  1  6
  3  2  1  0
  4  3  1  0
  4  5  2  0
  6  5  1  0
  7  6  1  0
  8  7  2  0
  9  8  1  0
 10  9  2  0
 10 11  1  0
 11 12  2  0
 12  7  1  0
 12  4  1  0
 13  2  1  0
 13 14  2  0
 16 17  2  0
 16 15  1  0
 18 16  1  0
 19 20  1  0
 19 18  1  0
 20 21  1  0
 22 21  1  1
 22 23  1  0
 23 13  1  0
 24 22  1  0
 24 25  2  0
 27 26  1  1
 27 28  1  0
 29 30  1  1
 29 27  1  0
 30 24  1  0
 31 29  1  0
 32 31  2  0
 33 31  1  0
M  END
$$$$
