WRV.pdb
     RDKit          3D

 33 34  0  0  1  0  0  0  0  0999 V2000
   28.1452  -21.5609  -13.3168 N   0  0  0  0  0  0  0  0  0  0  0  0
   26.9371  -21.2744  -12.5525 C   0  0  1  0  0  0  0  0  0  0  0  0
   27.2691  -20.0291  -11.7361 C   0  0  0  0  0  0  0  0  0  0  0  0
   28.2052  -20.4814  -10.6662 C   0  0  0  0  0  0  0  0  0  0  0  0
   29.4847  -21.0198  -10.7892 C   0  0  0  0  0  0  0  0  0  0  0  0
   30.0113  -21.2733   -9.6019 N   0  0  0  0  0  0  0  0  0  0  0  0
   29.1072  -20.9158   -8.6748 C   0  0  0  0  0  0  0  0  0  0  0  0
   29.2115  -21.0034   -7.3034 C   0  0  0  0  0  0  0  0  0  0  0  0
   28.1425  -20.5774   -6.5260 C   0  0  0  0  0  0  0  0  0  0  0  0
   27.0135  -20.0824   -7.1165 C   0  0  0  0  0  0  0  0  0  0  0  0
   26.9338  -20.0050   -8.5045 C   0  0  0  0  0  0  0  0  0  0  0  0
   27.9812  -20.4222   -9.2947 C   0  0  0  0  0  0  0  0  0  0  0  0
   25.7504  -21.0617  -13.4393 C   0  0  0  0  0  0  0  0  0  0  0  0
   25.7143  -20.0725  -14.2382 O   0  0  0  0  0  0  0  0  0  0  0  0
   26.7902  -24.9722  -16.6790 N   0  0  0  0  0  0  0  0  0  0  0  0
   26.0417  -26.1093  -16.2433 C   0  0  0  0  0  0  0  0  0  0  0  0
   26.6011  -27.2206  -15.9361 N   0  0  0  0  0  0  0  0  0  0  0  0
   24.6345  -25.9587  -16.1633 N   0  0  0  0  0  0  0  0  0  0  0  0
   23.9841  -24.6933  -16.4212 C   0  0  0  0  0  0  0  0  0  0  0  0
   24.0776  -23.8018  -15.1833 C   0  0  0  0  0  0  0  0  0  0  0  0
   23.3070  -22.5271  -15.3768 C   0  0  0  0  0  0  0  0  0  0  0  0
   23.3974  -21.6713  -14.1514 C   0  0  2  0  0  0  0  0  0  0  0  0
   24.6235  -21.9396  -13.4333 N   0  0  0  0  0  0  0  0  0  0  0  0
   22.2118  -21.8492  -13.2663 C   0  0  0  0  0  0  0  0  0  0  0  0
   22.2210  -22.8381  -12.5016 O   0  0  0  0  0  0  0  0  0  0  0  0
   25.9947  -27.9852  -15.5538 C   0  0  0  0  0  0  0  0  0  0  0  0
   20.7792  -19.0699  -11.0635 C   0  0  2  0  0  0  0  0  0  0  0  0
   19.6511  -19.7443  -11.8024 C   0  0  0  0  0  0  0  0  0  0  0  0
   19.0450  -18.8540  -12.8589 C   0  0  2  0  0  0  0  0  0  0  0  0
   20.0466  -21.0978  -12.3625 N   0  0  0  0  0  0  0  0  0  0  0  0
   21.1275  -20.9267  -13.3011 C   0  0  0  0  0  0  0  0  0  0  0  0
   18.9142  -21.8377  -12.9068 O   0  0  0  0  0  0  0  0  0  0  0  0
   18.7733  -22.0607  -14.1335 O   0  0  0  0  0  0  0  0  0  0  0  0
  2  1  1  6
  3  2  1  0
  4  3  1  0
  4  5  2  0
  6  5  1  0
  7  6  1  0
  8  7  2  0
  9  8  1  0
 10  9  2  0
 10 11  1  0
 11 12  2  0
 12  7  1  0
 12  4  1  0
 13  2  1  0
 13 14  2  0
 16 17  2  0
 16 15  1  0
 18 16  1  0
 19 20  1  0
 19 18  1  0
 20 21  1  0
 22 21  1  6
 22 23  1  0
 23 13  1  0
 24 22  1  0
 24 25  2  0
 27 26  1  1
 27 28  1  0
 29 30  1  1
 29 27  1  0
 30 24  1  0
 31 29  1  0
 32 31  2  0
 33 31  1  0
M  END
$$$$
