WRV.pdb
     RDKit          3D

 33 34  0  0  1  0  0  0  0  0999 V2000
   28.1647  -19.8096  -10.4851 N   0  0  0  0  0  0  0  0  0  0  0  0
   27.1662  -20.8692  -10.4093 C   0  0  1  0  0  0  0  0  0  0  0  0
   26.7061  -20.8788   -8.9548 C   0  0  0  0  0  0  0  0  0  0  0  0
   27.9516  -20.9087   -8.1342 C   0  0  0  0  0  0  0  0  0  0  0  0
   29.1431  -21.5915   -8.3714 C   0  0  0  0  0  0  0  0  0  0  0  0
   30.0312  -21.3445   -7.4219 N   0  0  0  0  0  0  0  0  0  0  0  0
   29.4593  -20.5047   -6.5430 C   0  0  0  0  0  0  0  0  0  0  0  0
   30.0006  -19.9782   -5.3903 C   0  0  0  0  0  0  0  0  0  0  0  0
   29.2221  -19.1256   -4.6185 C   0  0  0  0  0  0  0  0  0  0  0  0
   27.9462  -18.8196   -5.0013 C   0  0  0  0  0  0  0  0  0  0  0  0
   27.4232  -19.3655   -6.1706 C   0  0  0  0  0  0  0  0  0  0  0  0
   28.1768  -20.2135   -6.9507 C   0  0  0  0  0  0  0  0  0  0  0  0
   26.0290  -20.6358  -11.3540 C   0  0  0  0  0  0  0  0  0  0  0  0
   25.3257  -19.5798  -11.2645 O   0  0  0  0  0  0  0  0  0  0  0  0
   27.3026  -25.3028  -16.5787 N   0  0  0  0  0  0  0  0  0  0  0  0
   25.8912  -25.1667  -16.3990 C   0  0  0  0  0  0  0  0  0  0  0  0
   25.1269  -26.1743  -16.1921 N   0  0  0  0  0  0  0  0  0  0  0  0
   25.3604  -23.8537  -16.4599 N   0  0  0  0  0  0  0  0  0  0  0  0
   26.2107  -22.6878  -16.5542 C   0  0  0  0  0  0  0  0  0  0  0  0
   26.0274  -21.8125  -15.3148 C   0  0  0  0  0  0  0  0  0  0  0  0
   24.8085  -22.2236  -14.5392 C   0  0  0  0  0  0  0  0  0  0  0  0
   24.6285  -21.3409  -13.3432 C   0  0  2  0  0  0  0  0  0  0  0  0
   25.6839  -21.5669  -12.3810 N   0  0  0  0  0  0  0  0  0  0  0  0
   23.2886  -21.5266  -12.7178 C   0  0  0  0  0  0  0  0  0  0  0  0
   23.1937  -22.4089  -11.8373 O   0  0  0  0  0  0  0  0  0  0  0  0
   24.1333  -25.9872  -15.9163 C   0  0  0  0  0  0  0  0  0  0  0  0
   18.8182  -19.6624  -11.8010 C   0  0  2  0  0  0  0  0  0  0  0  0
   20.2260  -19.5476  -12.3283 C   0  0  0  0  0  0  0  0  0  0  0  0
   21.0432  -18.5349  -11.5647 C   0  0  1  0  0  0  0  0  0  0  0  0
   20.9279  -20.8899  -12.4162 N   0  0  0  0  0  0  0  0  0  0  0  0
   22.1785  -20.7278  -13.1148 C   0  0  0  0  0  0  0  0  0  0  0  0
   20.0799  -21.9362  -12.9750 O   0  0  0  0  0  0  0  0  0  0  0  0
   20.0791  -22.2327  -14.1943 O   0  0  0  0  0  0  0  0  0  0  0  0
  2  1  1  1
  3  2  1  0
  4  3  1  0
  4  5  2  0
  6  5  1  0
  7  6  1  0
  8  7  2  0
  9  8  1  0
 10  9  2  0
 10 11  1  0
 11 12  2  0
 12  7  1  0
 12  4  1  0
 13  2  1  0
 13 14  2  0
 16 17  2  0
 16 15  1  0
 18 16  1  0
 19 20  1  0
 19 18  1  0
 20 21  1  0
 22 21  1  6
 22 23  1  0
 23 13  1  0
 24 22  1  0
 24 25  2  0
 27 26  1  6
 27 28  1  0
 29 30  1  6
 29 27  1  0
 30 24  1  0
 31 29  1  0
 32 31  2  0
 33 31  1  0
M  END
$$$$
