WRV.pdb
     RDKit          3D

 33 34  0  0  1  0  0  0  0  0999 V2000
   27.5967  -21.9298   -8.9467 N   0  0  0  0  0  0  0  0  0  0  0  0
   26.5566  -21.0338   -9.4374 C   0  0  1  0  0  0  0  0  0  0  0  0
   26.8397  -19.6921   -8.7688 C   0  0  0  0  0  0  0  0  0  0  0  0
   26.7556  -19.9431   -7.3007 C   0  0  0  0  0  0  0  0  0  0  0  0
   25.7365  -20.5525   -6.5712 C   0  0  0  0  0  0  0  0  0  0  0  0
   26.0427  -20.6153   -5.2853 N   0  0  0  0  0  0  0  0  0  0  0  0
   27.2546  -20.0563   -5.1313 C   0  0  0  0  0  0  0  0  0  0  0  0
   27.9760  -19.8910   -3.9688 C   0  0  0  0  0  0  0  0  0  0  0  0
   29.2189  -19.2752   -4.0387 C   0  0  0  0  0  0  0  0  0  0  0  0
   29.7096  -18.8449   -5.2397 C   0  0  0  0  0  0  0  0  0  0  0  0
   28.9599  -19.0240   -6.3994 C   0  0  0  0  0  0  0  0  0  0  0  0
   27.7252  -19.6313   -6.3535 C   0  0  0  0  0  0  0  0  0  0  0  0
   26.5670  -20.9279  -10.9303 C   0  0  0  0  0  0  0  0  0  0  0  0
   27.6283  -20.5868  -11.5429 O   0  0  0  0  0  0  0  0  0  0  0  0
   21.9449  -25.5372  -16.3471 N   0  0  0  0  0  0  0  0  0  0  0  0
   23.0237  -25.6948  -15.4226 C   0  0  0  0  0  0  0  0  0  0  0  0
   23.3261  -26.8298  -14.9103 N   0  0  0  0  0  0  0  0  0  0  0  0
   23.7574  -24.5290  -15.0883 N   0  0  0  0  0  0  0  0  0  0  0  0
   23.5589  -23.2748  -15.7800 C   0  0  0  0  0  0  0  0  0  0  0  0
   24.5039  -22.2160  -15.2127 C   0  0  0  0  0  0  0  0  0  0  0  0
   24.4926  -22.2319  -13.7107 C   0  0  0  0  0  0  0  0  0  0  0  0
   25.4128  -21.1814  -13.1707 C   0  0  2  0  0  0  0  0  0  0  0  0
   25.4110  -21.1985  -11.7247 N   0  0  0  0  0  0  0  0  0  0  0  0
   25.0673  -19.8272  -13.6878 C   0  0  0  0  0  0  0  0  0  0  0  0
   24.1871  -19.1930  -13.0667 O   0  0  0  0  0  0  0  0  0  0  0  0
   24.0974  -26.8575  -14.2011 C   0  0  0  0  0  0  0  0  0  0  0  0
   26.3891  -15.9017  -16.3322 C   0  0  2  0  0  0  0  0  0  0  0  0
   26.6460  -17.3002  -15.8308 C   0  0  0  0  0  0  0  0  0  0  0  0
   27.8159  -17.3622  -14.8800 C   0  0  1  0  0  0  0  0  0  0  0  0
   25.4055  -17.9472  -15.2436 N   0  0  0  0  0  0  0  0  0  0  0  0
   25.7190  -19.2941  -14.8364 C   0  0  0  0  0  0  0  0  0  0  0  0
   24.2496  -17.8602  -16.1282 O   0  0  0  0  0  0  0  0  0  0  0  0
   23.9826  -18.7352  -16.9870 O   0  0  0  0  0  0  0  0  0  0  0  0
  2  1  1  6
  3  2  1  0
  4  3  1  0
  4  5  2  0
  6  5  1  0
  7  6  1  0
  8  7  2  0
  9  8  1  0
 10  9  2  0
 10 11  1  0
 11 12  2  0
 12  7  1  0
 12  4  1  0
 13  2  1  0
 13 14  2  0
 16 17  2  0
 16 15  1  0
 18 16  1  0
 19 20  1  0
 19 18  1  0
 20 21  1  0
 22 21  1  6
 22 23  1  0
 23 13  1  0
 24 22  1  0
 24 25  2  0
 27 26  1  6
 27 28  1  0
 29 30  1  6
 29 27  1  0
 30 24  1  0
 31 29  1  0
 32 31  2  0
 33 31  1  0
M  END
$$$$
