WRV.pdb
     RDKit          3D

 33 34  0  0  1  0  0  0  0  0999 V2000
   26.8766  -18.2116  -18.5179 N   0  0  0  0  0  0  0  0  0  0  0  0
   26.0186  -17.9266  -17.3741 C   0  0  1  0  0  0  0  0  0  0  0  0
   25.0811  -16.8196  -17.8464 C   0  0  0  0  0  0  0  0  0  0  0  0
   25.9384  -15.6134  -18.0357 C   0  0  0  0  0  0  0  0  0  0  0  0
   26.3545  -15.0093  -19.2206 C   0  0  0  0  0  0  0  0  0  0  0  0
   27.0884  -13.9356  -18.9761 N   0  0  0  0  0  0  0  0  0  0  0  0
   27.1773  -13.8028  -17.6422 C   0  0  0  0  0  0  0  0  0  0  0  0
   27.8462  -12.8353  -16.9241 C   0  0  0  0  0  0  0  0  0  0  0  0
   27.8108  -12.8923  -15.5370 C   0  0  0  0  0  0  0  0  0  0  0  0
   27.1243  -13.8906  -14.9043 C   0  0  0  0  0  0  0  0  0  0  0  0
   26.4570  -14.8561  -15.6538 C   0  0  0  0  0  0  0  0  0  0  0  0
   26.4792  -14.8194  -17.0298 C   0  0  0  0  0  0  0  0  0  0  0  0
   25.2680  -19.1394  -16.9208 C   0  0  0  0  0  0  0  0  0  0  0  0
   24.6345  -19.8543  -17.7608 O   0  0  0  0  0  0  0  0  0  0  0  0
   26.7713  -19.6566   -9.6668 N   0  0  0  0  0  0  0  0  0  0  0  0
   25.6729  -20.5682   -9.7421 C   0  0  0  0  0  0  0  0  0  0  0  0
   24.7505  -20.6038   -8.8532 N   0  0  0  0  0  0  0  0  0  0  0  0
   25.6427  -21.4457  -10.8548 N   0  0  0  0  0  0  0  0  0  0  0  0
   26.5049  -21.2593  -12.0006 C   0  0  0  0  0  0  0  0  0  0  0  0
   25.7765  -20.4446  -13.0690 C   0  0  0  0  0  0  0  0  0  0  0  0
   24.9360  -21.3307  -13.9435 C   0  0  0  0  0  0  0  0  0  0  0  0
   24.3006  -20.5317  -15.0389 C   0  0  2  0  0  0  0  0  0  0  0  0
   25.2262  -19.5463  -15.5521 N   0  0  0  0  0  0  0  0  0  0  0  0
   23.0337  -19.8890  -14.5888 C   0  0  0  0  0  0  0  0  0  0  0  0
   23.1261  -19.0297  -13.6856 O   0  0  0  0  0  0  0  0  0  0  0  0
   23.9690  -21.2895   -8.9852 C   0  0  0  0  0  0  0  0  0  0  0  0
   18.4317  -18.5741  -15.5608 C   0  0  2  0  0  0  0  0  0  0  0  0
   19.7365  -19.2278  -15.9397 C   0  0  0  0  0  0  0  0  0  0  0  0
   20.4964  -18.4337  -16.9733 C   0  0  1  0  0  0  0  0  0  0  0  0
   20.5970  -19.5559  -14.7338 N   0  0  0  0  0  0  0  0  0  0  0  0
   21.7843  -20.2472  -15.1708 C   0  0  0  0  0  0  0  0  0  0  0  0
   19.8630  -20.2615  -13.6901 O   0  0  0  0  0  0  0  0  0  0  0  0
   19.7188  -21.5080  -13.6837 O   0  0  0  0  0  0  0  0  0  0  0  0
  2  1  1  6
  3  2  1  0
  4  3  1  0
  4  5  2  0
  6  5  1  0
  7  6  1  0
  8  7  2  0
  9  8  1  0
 10  9  2  0
 10 11  1  0
 11 12  2  0
 12  7  1  0
 12  4  1  0
 13  2  1  0
 13 14  2  0
 16 17  2  0
 16 15  1  0
 18 16  1  0
 19 20  1  0
 19 18  1  0
 20 21  1  0
 22 21  1  1
 22 23  1  0
 23 13  1  0
 24 22  1  0
 24 25  2  0
 27 26  1  6
 27 28  1  0
 29 30  1  6
 29 27  1  0
 30 24  1  0
 31 29  1  0
 32 31  2  0
 33 31  1  0
M  END
$$$$
