YGD.pdb
     RDKit          3D

 25 25  0  0  1  0  0  0  0  0999 V2000
    4.9769  -10.7405   28.0313 O   0  0  0  0  0  0  0  0  0  0  0  0
    5.8237  -11.4663   27.1858 C   0  0  0  0  0  0  0  0  0  0  0  0
    6.3129  -12.6916   27.5656 C   0  0  0  0  0  0  0  0  0  0  0  0
    7.1490  -13.4211   26.7447 C   0  0  0  0  0  0  0  0  0  0  0  0
    7.5035  -12.9113   25.5145 C   0  0  0  0  0  0  0  0  0  0  0  0
    8.4014  -13.6980   24.6371 C   0  0  0  0  0  0  0  0  0  0  0  0
    7.5470  -14.6818   23.8725 C   0  0  2  0  0  0  0  0  0  0  0  0
    7.0929  -15.6751   24.8206 N   0  0  0  0  0  0  0  0  0  0  0  0
    8.2344  -15.2937   22.7442 C   0  0  0  0  0  0  0  0  0  0  0  0
    8.7260  -14.6833   21.7685 O   0  0  0  0  0  0  0  0  0  0  0  0
    7.0021  -11.6734   25.1444 C   0  0  0  0  0  0  0  0  0  0  0  0
    6.1635  -10.9322   25.9578 C   0  0  0  0  0  0  0  0  0  0  0  0
    8.3791  -16.7259   22.7174 N   0  0  0  0  0  0  0  0  0  0  0  0
    9.0098  -17.4093   21.6271 C   0  0  0  0  0  0  0  0  0  0  0  0
   10.4494  -17.5598   21.6922 C   0  0  0  0  0  0  0  0  0  0  0  0
   11.0566  -18.1873   20.7940 O   0  0  0  0  0  0  0  0  0  0  0  0
   11.2141  -17.0162   22.7445 N   0  0  0  0  0  0  0  0  0  0  0  0
   12.6377  -17.3262   22.8689 C   0  0  1  0  0  0  0  0  0  0  0  0
   13.4804  -16.0642   22.7306 C   0  0  0  0  0  0  0  0  0  0  0  0
   14.9227  -16.3857   22.7342 C   0  0  0  0  0  0  0  0  0  0  0  0
   15.2959  -17.5957   22.7971 O   0  0  0  0  0  0  0  0  0  0  0  0
   12.8589  -17.9303   24.1843 C   0  0  0  0  0  0  0  0  0  0  0  0
   11.9931  -17.8513   25.1102 O   0  0  0  0  0  0  0  0  0  0  0  0
   15.8922  -15.3842   22.6703 O   0  0  0  0  0  0  0  0  0  0  0  0
   14.0206  -18.6275   24.5130 O   0  0  0  0  0  0  0  0  0  0  0  0
  2  1  1  0
  2  3  2  0
  4  3  1  0
  5  4  2  0
  6  5  1  0
  6  7  1  0
  7  8  1  1
  9  7  1  0
  9 13  1  0
 10  9  2  0
 11 12  2  0
 11  5  1  0
 12  2  1  0
 14 13  1  0
 15 14  1  0
 16 15  2  0
 17 15  1  0
 18 19  1  1
 18 17  1  0
 19 20  1  0
 20 24  1  0
 21 20  2  0
 22 18  1  0
 23 22  2  0
 25 22  1  0
M  END
$$$$
