YGD.pdb
     RDKit          3D

 25 25  0  0  1  0  0  0  0  0999 V2000
    8.3674  -12.7328   16.9401 O   0  0  0  0  0  0  0  0  0  0  0  0
    8.0959  -13.0390   18.2785 C   0  0  0  0  0  0  0  0  0  0  0  0
    8.9874  -12.7086   19.2689 C   0  0  0  0  0  0  0  0  0  0  0  0
    8.7361  -13.0029   20.5939 C   0  0  0  0  0  0  0  0  0  0  0  0
    7.5644  -13.6431   20.9347 C   0  0  0  0  0  0  0  0  0  0  0  0
    7.2993  -13.9570   22.3581 C   0  0  0  0  0  0  0  0  0  0  0  0
    8.2174  -15.0891   22.7555 C   0  0  2  0  0  0  0  0  0  0  0  0
    8.0444  -16.1388   21.7759 N   0  0  0  0  0  0  0  0  0  0  0  0
    7.9870  -15.5760   24.1082 C   0  0  0  0  0  0  0  0  0  0  0  0
    6.9470  -15.4004   24.7818 O   0  0  0  0  0  0  0  0  0  0  0  0
    6.6739  -13.9704   19.9245 C   0  0  0  0  0  0  0  0  0  0  0  0
    6.9138  -13.6812   18.5928 C   0  0  0  0  0  0  0  0  0  0  0  0
    9.0273  -16.3303   24.7576 N   0  0  0  0  0  0  0  0  0  0  0  0
   10.2164  -15.7114   25.2642 C   0  0  0  0  0  0  0  0  0  0  0  0
   11.1782  -16.5758   25.9177 C   0  0  0  0  0  0  0  0  0  0  0  0
   12.2758  -16.1137   26.3060 O   0  0  0  0  0  0  0  0  0  0  0  0
   10.9258  -17.9444   26.1432 N   0  0  0  0  0  0  0  0  0  0  0  0
   12.0282  -18.8794   26.3633 C   0  0  1  0  0  0  0  0  0  0  0  0
   11.5142  -20.1997   26.9242 C   0  0  0  0  0  0  0  0  0  0  0  0
   10.8576  -20.0008   28.2331 C   0  0  0  0  0  0  0  0  0  0  0  0
   10.8377  -18.8462   28.7563 O   0  0  0  0  0  0  0  0  0  0  0  0
   12.6931  -19.1098   25.0792 C   0  0  0  0  0  0  0  0  0  0  0  0
   12.0486  -19.4822   24.0501 O   0  0  0  0  0  0  0  0  0  0  0  0
   10.2547  -21.0593   28.9136 O   0  0  0  0  0  0  0  0  0  0  0  0
   14.0644  -18.9394   24.8939 O   0  0  0  0  0  0  0  0  0  0  0  0
  2  1  1  0
  2  3  2  0
  4  3  1  0
  5  4  2  0
  6  5  1  0
  6  7  1  0
  7  8  1  6
  9  7  1  0
  9 13  1  0
 10  9  2  0
 11 12  2  0
 11  5  1  0
 12  2  1  0
 14 13  1  0
 15 14  1  0
 16 15  2  0
 17 15  1  0
 18 19  1  6
 18 17  1  0
 19 20  1  0
 20 24  1  0
 21 20  2  0
 22 18  1  0
 23 22  2  0
 25 22  1  0
M  END
$$$$
