YGD.pdb
     RDKit          3D

 25 25  0  0  1  0  0  0  0  0999 V2000
    9.3804  -11.7913   19.1093 O   0  0  0  0  0  0  0  0  0  0  0  0
    8.4928  -12.7221   19.6612 C   0  0  0  0  0  0  0  0  0  0  0  0
    7.9677  -13.7319   18.8935 C   0  0  0  0  0  0  0  0  0  0  0  0
    7.0911  -14.6586   19.4210 C   0  0  0  0  0  0  0  0  0  0  0  0
    6.7322  -14.5715   20.7486 C   0  0  0  0  0  0  0  0  0  0  0  0
    5.7908  -15.5684   21.3101 C   0  0  0  0  0  0  0  0  0  0  0  0
    6.6044  -16.5846   22.0768 C   0  0  2  0  0  0  0  0  0  0  0  0
    7.1137  -15.9181   23.2549 N   0  0  0  0  0  0  0  0  0  0  0  0
    7.6771  -17.1805   21.2931 C   0  0  0  0  0  0  0  0  0  0  0  0
    7.5310  -17.8772   20.2637 O   0  0  0  0  0  0  0  0  0  0  0  0
    7.2702  -13.5472   21.5114 C   0  0  0  0  0  0  0  0  0  0  0  0
    8.1495  -12.6121   20.9949 C   0  0  0  0  0  0  0  0  0  0  0  0
    9.0382  -16.9689   21.7116 N   0  0  0  0  0  0  0  0  0  0  0  0
   10.1540  -17.2905   20.8718 C   0  0  0  0  0  0  0  0  0  0  0  0
   11.4656  -16.8959   21.3441 C   0  0  0  0  0  0  0  0  0  0  0  0
   11.6456  -15.7478   21.8117 O   0  0  0  0  0  0  0  0  0  0  0  0
   12.5724  -17.7681   21.3020 N   0  0  0  0  0  0  0  0  0  0  0  0
   13.9281  -17.2450   21.1384 C   0  0  1  0  0  0  0  0  0  0  0  0
   13.9528  -16.1165   20.1148 C   0  0  0  0  0  0  0  0  0  0  0  0
   15.3310  -15.6323   19.8913 C   0  0  0  0  0  0  0  0  0  0  0  0
   16.3045  -16.2386   20.4316 O   0  0  0  0  0  0  0  0  0  0  0  0
   14.3842  -16.7479   22.4380 C   0  0  0  0  0  0  0  0  0  0  0  0
   15.3906  -17.2485   23.0294 O   0  0  0  0  0  0  0  0  0  0  0  0
   15.5906  -14.5162   19.0952 O   0  0  0  0  0  0  0  0  0  0  0  0
   13.7558  -15.7023   23.1130 O   0  0  0  0  0  0  0  0  0  0  0  0
  2  1  1  0
  2  3  2  0
  4  3  1  0
  5  4  2  0
  6  5  1  0
  6  7  1  0
  7  8  1  1
  9  7  1  0
  9 13  1  0
 10  9  2  0
 11 12  2  0
 11  5  1  0
 12  2  1  0
 14 13  1  0
 15 14  1  0
 16 15  2  0
 17 15  1  0
 18 19  1  6
 18 17  1  0
 19 20  1  0
 20 24  1  0
 21 20  2  0
 22 18  1  0
 23 22  2  0
 25 22  1  0
M  END
$$$$
