YGD.pdb
     RDKit          3D

 25 25  0  0  1  0  0  0  0  0999 V2000
    5.6210  -11.4600   28.3724 O   0  0  0  0  0  0  0  0  0  0  0  0
    6.2150  -11.9251   27.1936 C   0  0  0  0  0  0  0  0  0  0  0  0
    5.5918  -12.8730   26.4202 C   0  0  0  0  0  0  0  0  0  0  0  0
    6.1627  -13.3431   25.2548 C   0  0  0  0  0  0  0  0  0  0  0  0
    7.3866  -12.8524   24.8547 C   0  0  0  0  0  0  0  0  0  0  0  0
    7.9954  -13.3603   23.6032 C   0  0  0  0  0  0  0  0  0  0  0  0
    8.0410  -14.8676   23.6956 C   0  0  2  0  0  0  0  0  0  0  0  0
    8.7734  -15.1966   24.8984 N   0  0  0  0  0  0  0  0  0  0  0  0
    8.6240  -15.5039   22.5229 C   0  0  0  0  0  0  0  0  0  0  0  0
    8.1601  -15.4624   21.3613 O   0  0  0  0  0  0  0  0  0  0  0  0
    8.0039  -11.8959   25.6452 C   0  0  0  0  0  0  0  0  0  0  0  0
    7.4425  -11.4165   26.8153 C   0  0  0  0  0  0  0  0  0  0  0  0
    9.8424  -16.2551   22.6784 N   0  0  0  0  0  0  0  0  0  0  0  0
   10.5452  -16.8102   21.5596 C   0  0  0  0  0  0  0  0  0  0  0  0
   11.7671  -17.5340   21.8463 C   0  0  0  0  0  0  0  0  0  0  0  0
   12.4830  -17.9544   20.9082 O   0  0  0  0  0  0  0  0  0  0  0  0
   12.1967  -17.7892   23.1646 N   0  0  0  0  0  0  0  0  0  0  0  0
   13.6013  -17.6240   23.5362 C   0  0  1  0  0  0  0  0  0  0  0  0
   14.0853  -16.2163   23.2104 C   0  0  0  0  0  0  0  0  0  0  0  0
   15.5609  -16.1627   23.1510 C   0  0  0  0  0  0  0  0  0  0  0  0
   16.1404  -15.0569   22.9300 O   0  0  0  0  0  0  0  0  0  0  0  0
   13.7241  -17.8720   24.9740 C   0  0  0  0  0  0  0  0  0  0  0  0
   14.7019  -18.5214   25.4592 O   0  0  0  0  0  0  0  0  0  0  0  0
   16.3391  -17.3066   23.3328 O   0  0  0  0  0  0  0  0  0  0  0  0
   12.7893  -17.4196   25.9041 O   0  0  0  0  0  0  0  0  0  0  0  0
  2  1  1  0
  2  3  2  0
  4  3  1  0
  5  4  2  0
  6  5  1  0
  6  7  1  0
  7  8  1  1
  9  7  1  0
  9 13  1  0
 10  9  2  0
 11 12  2  0
 11  5  1  0
 12  2  1  0
 14 13  1  0
 15 14  1  0
 16 15  2  0
 17 15  1  0
 18 19  1  1
 18 17  1  0
 19 20  1  0
 20 24  1  0
 21 20  2  0
 22 18  1  0
 23 22  2  0
 25 22  1  0
M  END
$$$$
