KQC.pdb
     RDKit          3D

 25 24  0  0  1  0  0  0  0  0999 V2000
   16.0550  -13.1054  -12.3553 N   0  0  0  0  0  0  0  0  0  0  0  0
   15.4101  -11.8369  -12.5875 C   0  0  1  0  0  0  0  0  0  0  0  0
   14.0117  -11.7365  -12.0558 C   0  0  0  0  0  0  0  0  0  0  0  0
   13.2877  -13.0323  -11.9670 C   0  0  0  0  0  0  0  0  0  0  0  0
   11.8995  -12.9891  -11.4301 C   0  0  0  0  0  0  0  0  0  0  0  0
   11.2780  -14.3980  -11.4189 C   0  0  0  0  0  0  0  0  0  0  0  0
    9.9530  -14.2411  -10.8590 N   0  0  0  0  0  0  0  0  0  0  0  0
   16.2859  -10.7730  -11.9950 C   0  0  0  0  0  0  0  0  0  0  0  0
   16.9141  -11.0364  -10.9501 O   0  0  0  0  0  0  0  0  0  0  0  0
   20.6644   -8.7162  -12.7529 N   0  0  0  0  0  0  0  0  0  0  0  0
   20.3854   -7.3422  -12.5204 C   0  0  0  0  0  0  0  0  0  0  0  0
   21.3008   -6.5860  -12.0953 O   0  0  0  0  0  0  0  0  0  0  0  0
   19.0044   -6.7965  -12.7811 C   0  0  0  0  0  0  0  0  0  0  0  0
   18.0849   -7.9253  -13.1411 C   0  0  0  0  0  0  0  0  0  0  0  0
   17.2670   -8.4523  -11.9903 C   0  0  2  0  0  0  0  0  0  0  0  0
   16.4181   -9.5030  -12.5756 N   0  0  0  0  0  0  0  0  0  0  0  0
   16.3840   -7.4706  -11.3657 C   0  0  0  0  0  0  0  0  0  0  0  0
   15.3907   -7.0296  -11.9955 O   0  0  0  0  0  0  0  0  0  0  0  0
   16.5903   -6.9780  -10.0613 N   0  0  0  0  0  0  0  0  0  0  0  0
   15.6598   -6.0315   -9.4437 C   0  0  1  0  0  0  0  0  0  0  0  0
   15.6740   -6.2794   -7.9572 C   0  0  0  0  0  0  0  0  0  0  0  0
   15.0374   -7.9200   -7.5700 S   0  0  0  0  0  0  0  0  0  0  0  0
   16.1082   -4.6524   -9.7662 C   0  0  0  0  0  0  0  0  0  0  0  0
   15.3476   -3.5433   -9.4354 O   0  0  0  0  0  0  0  0  0  0  0  0
   17.1935   -4.4500  -10.3503 O   0  0  0  0  0  0  0  0  0  0  0  0
  2  1  1  1
  3  2  1  0
  4  3  1  0
  5  4  1  0
  6  7  1  0
  6  5  1  0
  8  9  2  0
  8  2  1  0
 10 11  1  0
 11 12  2  0
 13 11  1  0
 13 14  1  0
 15 14  1  6
 15 16  1  0
 16  8  1  0
 17 15  1  0
 18 17  2  0
 19 17  1  0
 20 19  1  0
 21 22  1  0
 20 21  1  1
 23 20  1  0
 23 24  1  0
 25 23  2  0
M  END
$$$$
