KQC.pdb
     RDKit          3D

 25 24  0  0  1  0  0  0  0  0999 V2000
   27.7965  -21.2317  -17.7081 N   0  0  0  0  0  0  0  0  0  0  0  0
   26.8117  -22.0003  -16.9882 C   0  0  1  0  0  0  0  0  0  0  0  0
   27.3762  -23.0553  -16.0845 C   0  0  0  0  0  0  0  0  0  0  0  0
   28.0563  -24.1751  -16.7878 C   0  0  0  0  0  0  0  0  0  0  0  0
   27.5839  -25.5512  -16.4711 C   0  0  0  0  0  0  0  0  0  0  0  0
   28.4200  -26.5996  -17.2282 C   0  0  0  0  0  0  0  0  0  0  0  0
   27.9476  -27.8881  -16.7695 N   0  0  0  0  0  0  0  0  0  0  0  0
   25.9629  -21.0332  -16.2175 C   0  0  0  0  0  0  0  0  0  0  0  0
   26.5323  -20.1566  -15.5368 O   0  0  0  0  0  0  0  0  0  0  0  0
   22.0116  -17.6674  -18.5353 N   0  0  0  0  0  0  0  0  0  0  0  0
   23.1022  -17.0996  -17.8226 C   0  0  0  0  0  0  0  0  0  0  0  0
   23.5293  -15.9582  -18.1473 O   0  0  0  0  0  0  0  0  0  0  0  0
   23.7410  -17.8590  -16.6876 C   0  0  0  0  0  0  0  0  0  0  0  0
   23.1417  -19.2316  -16.6099 C   0  0  0  0  0  0  0  0  0  0  0  0
   23.7245  -20.1043  -15.5284 C   0  0  2  0  0  0  0  0  0  0  0  0
   24.5613  -21.0848  -16.2393 N   0  0  0  0  0  0  0  0  0  0  0  0
   22.7417  -20.8499  -14.7463 C   0  0  0  0  0  0  0  0  0  0  0  0
   22.1986  -21.8730  -15.2322 O   0  0  0  0  0  0  0  0  0  0  0  0
   22.3589  -20.4749  -13.4426 N   0  0  0  0  0  0  0  0  0  0  0  0
   21.4128  -21.2743  -12.6622 C   0  0  1  0  0  0  0  0  0  0  0  0
   21.4248  -20.7482  -11.2499 C   0  0  0  0  0  0  0  0  0  0  0  0
   20.7375  -19.0843  -11.1748 S   0  0  0  0  0  0  0  0  0  0  0  0
   20.0667  -21.1428  -13.2767 C   0  0  0  0  0  0  0  0  0  0  0  0
   19.0868  -22.1047  -13.0965 O   0  0  0  0  0  0  0  0  0  0  0  0
   19.7757  -20.1526  -13.9802 O   0  0  0  0  0  0  0  0  0  0  0  0
  2  1  1  1
  3  2  1  0
  4  3  1  0
  5  4  1  0
  6  7  1  0
  6  5  1  0
  8  9  2  0
  8  2  1  0
 10 11  1  0
 11 12  2  0
 13 11  1  0
 13 14  1  0
 15 14  1  6
 15 16  1  0
 16  8  1  0
 17 15  1  0
 18 17  2  0
 19 17  1  0
 20 19  1  0
 21 22  1  0
 20 21  1  1
 23 20  1  0
 23 24  1  0
 25 23  2  0
M  END
$$$$
