KQC.pdb
     RDKit          3D

 25 24  0  0  1  0  0  0  0  0999 V2000
   20.5813  -27.9009  -13.1051 N   0  0  0  0  0  0  0  0  0  0  0  0
   20.5859  -26.6535  -12.3820 C   0  0  1  0  0  0  0  0  0  0  0  0
   20.8744  -25.4434  -13.2189 C   0  0  0  0  0  0  0  0  0  0  0  0
   20.2463  -25.4575  -14.5667 C   0  0  0  0  0  0  0  0  0  0  0  0
   20.5943  -24.3344  -15.4803 C   0  0  0  0  0  0  0  0  0  0  0  0
   19.7897  -24.4310  -16.7898 C   0  0  0  0  0  0  0  0  0  0  0  0
   20.2200  -23.3131  -17.6014 N   0  0  0  0  0  0  0  0  0  0  0  0
   19.2575  -26.5268  -11.6971 C   0  0  0  0  0  0  0  0  0  0  0  0
   18.2652  -27.0691  -12.2234 O   0  0  0  0  0  0  0  0  0  0  0  0
   18.7622  -24.5374   -5.8772 N   0  0  0  0  0  0  0  0  0  0  0  0
   17.3749  -24.6181   -6.1757 C   0  0  0  0  0  0  0  0  0  0  0  0
   16.5308  -24.2909   -5.2976 O   0  0  0  0  0  0  0  0  0  0  0  0
   16.9200  -25.0918   -7.5327 C   0  0  0  0  0  0  0  0  0  0  0  0
   18.1191  -25.3477   -8.3964 C   0  0  0  0  0  0  0  0  0  0  0  0
   17.7937  -25.6782   -9.8302 C   0  0  2  0  0  0  0  0  0  0  0  0
   19.0996  -25.8233  -10.4939 N   0  0  0  0  0  0  0  0  0  0  0  0
   17.0500  -24.6435  -10.5442 C   0  0  0  0  0  0  0  0  0  0  0  0
   17.6129  -23.5622  -10.8471 O   0  0  0  0  0  0  0  0  0  0  0  0
   15.7005  -24.7952  -10.9218 N   0  0  0  0  0  0  0  0  0  0  0  0
   14.9992  -23.7646  -11.6893 C   0  0  1  0  0  0  0  0  0  0  0  0
   13.6667  -24.3317  -12.1068 C   0  0  0  0  0  0  0  0  0  0  0  0
   13.8309  -25.3413  -13.5902 S   0  0  0  0  0  0  0  0  0  0  0  0
   14.8307  -22.5676  -10.8256 C   0  0  0  0  0  0  0  0  0  0  0  0
   14.7287  -22.6719   -9.4484 O   0  0  0  0  0  0  0  0  0  0  0  0
   14.7755  -21.4218  -11.3196 O   0  0  0  0  0  0  0  0  0  0  0  0
  2  1  1  6
  3  2  1  0
  4  3  1  0
  5  4  1  0
  6  7  1  0
  6  5  1  0
  8  9  2  0
  8  2  1  0
 10 11  1  0
 11 12  2  0
 13 11  1  0
 13 14  1  0
 15 14  1  1
 15 16  1  0
 16  8  1  0
 17 15  1  0
 18 17  2  0
 19 17  1  0
 20 19  1  0
 21 22  1  0
 20 21  1  1
 23 20  1  0
 23 24  1  0
 25 23  2  0
M  END
$$$$
