KQC.pdb
     RDKit          3D

 25 24  0  0  1  0  0  0  0  0999 V2000
   16.2345  -14.8851  -17.0010 N   0  0  0  0  0  0  0  0  0  0  0  0
   17.5003  -14.3725  -16.5386 C   0  0  1  0  0  0  0  0  0  0  0  0
   18.6934  -15.1834  -16.9475 C   0  0  0  0  0  0  0  0  0  0  0  0
   18.8906  -16.4335  -16.1669 C   0  0  0  0  0  0  0  0  0  0  0  0
   17.9651  -17.5617  -16.4629 C   0  0  0  0  0  0  0  0  0  0  0  0
   18.3546  -18.8105  -15.6502 C   0  0  0  0  0  0  0  0  0  0  0  0
   17.4094  -19.8388  -16.0284 N   0  0  0  0  0  0  0  0  0  0  0  0
   17.6190  -12.9601  -17.0294 C   0  0  0  0  0  0  0  0  0  0  0  0
   17.3853  -12.7292  -18.2327 O   0  0  0  0  0  0  0  0  0  0  0  0
   13.9190   -9.6560  -17.4552 N   0  0  0  0  0  0  0  0  0  0  0  0
   14.7951   -8.5368  -17.4573 C   0  0  0  0  0  0  0  0  0  0  0  0
   14.3337   -7.3876  -17.6961 O   0  0  0  0  0  0  0  0  0  0  0  0
   16.2640   -8.7261  -17.1757 C   0  0  0  0  0  0  0  0  0  0  0  0
   16.5323  -10.1744  -16.8936 C   0  0  0  0  0  0  0  0  0  0  0  0
   17.9802  -10.4988  -16.6300 C   0  0  2  0  0  0  0  0  0  0  0  0
   17.9814  -11.9016  -16.1835 N   0  0  0  0  0  0  0  0  0  0  0  0
   18.6051   -9.7017  -15.5775 C   0  0  0  0  0  0  0  0  0  0  0  0
   18.2437   -9.8455  -14.3832 O   0  0  0  0  0  0  0  0  0  0  0  0
   19.6175   -8.7554  -15.8347 N   0  0  0  0  0  0  0  0  0  0  0  0
   20.1460   -7.8922  -14.7771 C   0  0  1  0  0  0  0  0  0  0  0  0
   21.5617   -8.3264  -14.4964 C   0  0  0  0  0  0  0  0  0  0  0  0
   22.3583   -7.2128  -13.3251 S   0  0  0  0  0  0  0  0  0  0  0  0
   20.0957   -6.4846  -15.2495 C   0  0  0  0  0  0  0  0  0  0  0  0
   19.8798   -5.4309  -14.3771 O   0  0  0  0  0  0  0  0  0  0  0  0
   20.2480   -6.2067  -16.4576 O   0  0  0  0  0  0  0  0  0  0  0  0
  2  1  1  6
  3  2  1  0
  4  3  1  0
  5  4  1  0
  6  7  1  0
  6  5  1  0
  8  9  2  0
  8  2  1  0
 10 11  1  0
 11 12  2  0
 13 11  1  0
 13 14  1  0
 15 14  1  1
 15 16  1  0
 16  8  1  0
 17 15  1  0
 18 17  2  0
 19 17  1  0
 20 19  1  0
 21 22  1  0
 20 21  1  6
 23 20  1  0
 23 24  1  0
 25 23  2  0
M  END
$$$$
