KQC.pdb
     RDKit          3D

 25 24  0  0  1  0  0  0  0  0999 V2000
   19.2009  -13.1753  -18.1477 N   0  0  0  0  0  0  0  0  0  0  0  0
   18.7739  -13.5817  -16.8319 C   0  0  1  0  0  0  0  0  0  0  0  0
   19.4742  -14.7919  -16.2902 C   0  0  0  0  0  0  0  0  0  0  0  0
   19.1805  -16.0554  -17.0169 C   0  0  0  0  0  0  0  0  0  0  0  0
   17.7580  -16.4941  -17.0512 C   0  0  0  0  0  0  0  0  0  0  0  0
   17.6156  -17.8131  -17.8331 C   0  0  0  0  0  0  0  0  0  0  0  0
   18.1866  -18.8382  -16.9862 N   0  0  0  0  0  0  0  0  0  0  0  0
   18.9532  -12.4055  -15.9185 C   0  0  0  0  0  0  0  0  0  0  0  0
   19.0105  -12.6126  -14.6898 O   0  0  0  0  0  0  0  0  0  0  0  0
   21.2735   -7.1711  -14.8051 N   0  0  0  0  0  0  0  0  0  0  0  0
   22.0142   -8.0514  -15.6396 C   0  0  0  0  0  0  0  0  0  0  0  0
   23.2735   -8.0576  -15.5728 O   0  0  0  0  0  0  0  0  0  0  0  0
   21.2961   -8.9692  -16.5962 C   0  0  0  0  0  0  0  0  0  0  0  0
   19.8168   -8.8541  -16.3778 C   0  0  0  0  0  0  0  0  0  0  0  0
   19.2308   -9.9354  -15.5069 C   0  0  2  0  0  0  0  0  0  0  0  0
   19.0573  -11.0924  -16.4004 N   0  0  0  0  0  0  0  0  0  0  0  0
   17.9238   -9.6211  -14.9355 C   0  0  0  0  0  0  0  0  0  0  0  0
   16.8901   -9.7187  -15.6424 O   0  0  0  0  0  0  0  0  0  0  0  0
   17.7541   -9.2034  -13.6000 N   0  0  0  0  0  0  0  0  0  0  0  0
   16.4318   -8.8828  -13.0598 C   0  0  1  0  0  0  0  0  0  0  0  0
   16.3165   -9.5426  -11.7097 C   0  0  0  0  0  0  0  0  0  0  0  0
   14.8104   -9.0269  -10.8656 S   0  0  0  0  0  0  0  0  0  0  0  0
   16.3131   -7.4058  -12.9518 C   0  0  0  0  0  0  0  0  0  0  0  0
   15.1322   -6.7464  -13.2491 O   0  0  0  0  0  0  0  0  0  0  0  0
   17.2829   -6.7086  -12.5866 O   0  0  0  0  0  0  0  0  0  0  0  0
  2  1  1  6
  3  2  1  0
  4  3  1  0
  5  4  1  0
  6  7  1  0
  6  5  1  0
  8  9  2  0
  8  2  1  0
 10 11  1  0
 11 12  2  0
 13 11  1  0
 13 14  1  0
 15 14  1  6
 15 16  1  0
 16  8  1  0
 17 15  1  0
 18 17  2  0
 19 17  1  0
 20 19  1  0
 21 22  1  0
 20 21  1  1
 23 20  1  0
 23 24  1  0
 25 23  2  0
M  END
$$$$
