KQC.pdb
     RDKit          3D

 25 24  0  0  1  0  0  0  0  0999 V2000
   27.7359  -24.3044  -18.0888 N   0  0  0  0  0  0  0  0  0  0  0  0
   26.5905  -24.4167  -17.2203 C   0  0  1  0  0  0  0  0  0  0  0  0
   26.5595  -25.6575  -16.3790 C   0  0  0  0  0  0  0  0  0  0  0  0
   26.5824  -26.9294  -17.1489 C   0  0  0  0  0  0  0  0  0  0  0  0
   27.6530  -27.9042  -16.8014 C   0  0  0  0  0  0  0  0  0  0  0  0
   27.5204  -29.1817  -17.6511 C   0  0  0  0  0  0  0  0  0  0  0  0
   28.6269  -30.0301  -17.2646 N   0  0  0  0  0  0  0  0  0  0  0  0
   26.5554  -23.1869  -16.3623 C   0  0  0  0  0  0  0  0  0  0  0  0
   27.6108  -22.5395  -16.2110 O   0  0  0  0  0  0  0  0  0  0  0  0
   22.1673  -19.3499  -16.7914 N   0  0  0  0  0  0  0  0  0  0  0  0
   22.7431  -18.7406  -15.6437 C   0  0  0  0  0  0  0  0  0  0  0  0
   22.2951  -17.6339  -15.2376 O   0  0  0  0  0  0  0  0  0  0  0  0
   23.8805  -19.4154  -14.9199 C   0  0  0  0  0  0  0  0  0  0  0  0
   24.2583  -20.6698  -15.6500 C   0  0  0  0  0  0  0  0  0  0  0  0
   25.3209  -21.4911  -14.9664 C   0  0  2  0  0  0  0  0  0  0  0  0
   25.3823  -22.7475  -15.7312 N   0  0  0  0  0  0  0  0  0  0  0  0
   25.0301  -21.8357  -13.5771 C   0  0  0  0  0  0  0  0  0  0  0  0
   24.1923  -22.7344  -13.3157 O   0  0  0  0  0  0  0  0  0  0  0  0
   25.6536  -21.1989  -12.4852 N   0  0  0  0  0  0  0  0  0  0  0  0
   25.1768  -21.3874  -11.1140 C   0  0  1  0  0  0  0  0  0  0  0  0
   26.2127  -20.8079  -10.1853 C   0  0  0  0  0  0  0  0  0  0  0  0
   25.6498  -20.8639   -8.4745 S   0  0  0  0  0  0  0  0  0  0  0  0
   23.8719  -20.6921  -10.9698 C   0  0  0  0  0  0  0  0  0  0  0  0
   22.8677  -21.1894  -10.1560 O   0  0  0  0  0  0  0  0  0  0  0  0
   23.6392  -19.6293  -11.5832 O   0  0  0  0  0  0  0  0  0  0  0  0
  2  1  1  1
  3  2  1  0
  4  3  1  0
  5  4  1  0
  6  7  1  0
  6  5  1  0
  8  9  2  0
  8  2  1  0
 10 11  1  0
 11 12  2  0
 13 11  1  0
 13 14  1  0
 15 14  1  6
 15 16  1  0
 16  8  1  0
 17 15  1  0
 18 17  2  0
 19 17  1  0
 20 19  1  0
 21 22  1  0
 20 21  1  1
 23 20  1  0
 23 24  1  0
 25 23  2  0
M  END
$$$$
