KQC.pdb
     RDKit          3D

 25 24  0  0  1  0  0  0  0  0999 V2000
   17.2973  -14.3485  -18.6431 N   0  0  0  0  0  0  0  0  0  0  0  0
   17.8521  -13.7567  -17.4512 C   0  0  1  0  0  0  0  0  0  0  0  0
   18.8744  -14.5993  -16.7490 C   0  0  0  0  0  0  0  0  0  0  0  0
   18.3664  -15.9059  -16.2531 C   0  0  0  0  0  0  0  0  0  0  0  0
   19.3451  -16.7844  -15.5549 C   0  0  0  0  0  0  0  0  0  0  0  0
   18.6898  -18.1214  -15.1615 C   0  0  0  0  0  0  0  0  0  0  0  0
   19.7505  -18.9325  -14.6042 N   0  0  0  0  0  0  0  0  0  0  0  0
   18.4278  -12.4264  -17.8366 C   0  0  0  0  0  0  0  0  0  0  0  0
   19.2165  -12.3792  -18.8019 O   0  0  0  0  0  0  0  0  0  0  0  0
   16.4993  -10.8966  -21.4461 N   0  0  0  0  0  0  0  0  0  0  0  0
   16.4547   -9.8788  -20.4551 C   0  0  0  0  0  0  0  0  0  0  0  0
   15.3412   -9.4018  -20.1047 O   0  0  0  0  0  0  0  0  0  0  0  0
   17.7312   -9.3760  -19.8300 C   0  0  0  0  0  0  0  0  0  0  0  0
   17.5523   -9.2824  -18.3439 C   0  0  0  0  0  0  0  0  0  0  0  0
   18.6501   -9.9339  -17.5431 C   0  0  2  0  0  0  0  0  0  0  0  0
   18.1088  -11.2453  -17.1505 N   0  0  0  0  0  0  0  0  0  0  0  0
   19.0191   -9.2263  -16.3197 C   0  0  0  0  0  0  0  0  0  0  0  0
   18.2673   -9.2766  -15.3147 O   0  0  0  0  0  0  0  0  0  0  0  0
   20.2029   -8.4704  -16.2015 N   0  0  0  0  0  0  0  0  0  0  0  0
   20.5599   -7.7963  -14.9520 C   0  0  1  0  0  0  0  0  0  0  0  0
   21.8312   -8.4237  -14.4404 C   0  0  0  0  0  0  0  0  0  0  0  0
   22.4148   -7.5830  -12.9574 S   0  0  0  0  0  0  0  0  0  0  0  0
   20.7464   -6.3497  -15.2343 C   0  0  0  0  0  0  0  0  0  0  0  0
   20.4584   -5.3801  -14.2884 O   0  0  0  0  0  0  0  0  0  0  0  0
   21.1720   -5.9613  -16.3424 O   0  0  0  0  0  0  0  0  0  0  0  0
  2  1  1  6
  3  2  1  0
  4  3  1  0
  5  4  1  0
  6  7  1  0
  6  5  1  0
  8  9  2  0
  8  2  1  0
 10 11  1  0
 11 12  2  0
 13 11  1  0
 13 14  1  0
 15 14  1  1
 15 16  1  0
 16  8  1  0
 17 15  1  0
 18 17  2  0
 19 17  1  0
 20 19  1  0
 21 22  1  0
 20 21  1  6
 23 20  1  0
 23 24  1  0
 25 23  2  0
M  END
$$$$
