KQC.pdb
     RDKit          3D

 25 24  0  0  1  0  0  0  0  0999 V2000
   33.1517  -26.3519  -20.8284 N   0  0  0  0  0  0  0  0  0  0  0  0
   32.4132  -26.9832  -21.8937 C   0  0  1  0  0  0  0  0  0  0  0  0
   33.2600  -27.6596  -22.9299 C   0  0  0  0  0  0  0  0  0  0  0  0
   34.2996  -26.7918  -23.5441 C   0  0  0  0  0  0  0  0  0  0  0  0
   35.6276  -27.4148  -23.7995 C   0  0  0  0  0  0  0  0  0  0  0  0
   36.5732  -26.4134  -24.4884 C   0  0  0  0  0  0  0  0  0  0  0  0
   37.8654  -27.0623  -24.5414 N   0  0  0  0  0  0  0  0  0  0  0  0
   31.4593  -27.9546  -21.2642 C   0  0  0  0  0  0  0  0  0  0  0  0
   31.7873  -29.1569  -21.2102 O   0  0  0  0  0  0  0  0  0  0  0  0
   28.7615  -26.7716  -16.2236 N   0  0  0  0  0  0  0  0  0  0  0  0
   27.9913  -27.9344  -16.4968 C   0  0  0  0  0  0  0  0  0  0  0  0
   27.2215  -28.3921  -15.6089 O   0  0  0  0  0  0  0  0  0  0  0  0
   28.0966  -28.6127  -17.8391 C   0  0  0  0  0  0  0  0  0  0  0  0
   29.0852  -27.8744  -18.6917 C   0  0  0  0  0  0  0  0  0  0  0  0
   29.3190  -28.4897  -20.0473 C   0  0  2  0  0  0  0  0  0  0  0  0
   30.2213  -27.5550  -20.7397 N   0  0  0  0  0  0  0  0  0  0  0  0
   28.1205  -28.6345  -20.8696 C   0  0  0  0  0  0  0  0  0  0  0  0
   27.6048  -27.6249  -21.4105 O   0  0  0  0  0  0  0  0  0  0  0  0
   27.4942  -29.8769  -21.0955 N   0  0  0  0  0  0  0  0  0  0  0  0
   26.2889  -29.9888  -21.9188 C   0  0  1  0  0  0  0  0  0  0  0  0
   26.4805  -31.1540  -22.8552 C   0  0  0  0  0  0  0  0  0  0  0  0
   25.1751  -31.2066  -24.0961 S   0  0  0  0  0  0  0  0  0  0  0  0
   25.1243  -30.2022  -21.0214 C   0  0  0  0  0  0  0  0  0  0  0  0
   25.2381  -30.9099  -19.8364 O   0  0  0  0  0  0  0  0  0  0  0  0
   23.9983  -29.7460  -21.3110 O   0  0  0  0  0  0  0  0  0  0  0  0
  2  1  1  1
  3  2  1  0
  4  3  1  0
  5  4  1  0
  6  7  1  0
  6  5  1  0
  8  9  2  0
  8  2  1  0
 10 11  1  0
 11 12  2  0
 13 11  1  0
 13 14  1  0
 15 14  1  1
 15 16  1  0
 16  8  1  0
 17 15  1  0
 18 17  2  0
 19 17  1  0
 20 19  1  0
 21 22  1  0
 20 21  1  6
 23 20  1  0
 23 24  1  0
 25 23  2  0
M  END
$$$$
