KQC.pdb
     RDKit          3D

 25 24  0  0  1  0  0  0  0  0999 V2000
   15.9807  -12.5666  -14.1564 N   0  0  0  0  0  0  0  0  0  0  0  0
   15.8099  -11.1422  -14.2995 C   0  0  1  0  0  0  0  0  0  0  0  0
   14.3939  -10.6977  -14.5133 C   0  0  0  0  0  0  0  0  0  0  0  0
   13.4291  -11.8007  -14.7654 C   0  0  0  0  0  0  0  0  0  0  0  0
   12.0581  -11.4076  -15.1928 C   0  0  0  0  0  0  0  0  0  0  0  0
   11.1923  -12.6544  -15.4528 C   0  0  0  0  0  0  0  0  0  0  0  0
    9.8905  -12.1573  -15.8424 N   0  0  0  0  0  0  0  0  0  0  0  0
   16.3959  -10.4950  -13.0797 C   0  0  0  0  0  0  0  0  0  0  0  0
   16.1168  -10.9743  -11.9625 O   0  0  0  0  0  0  0  0  0  0  0  0
   21.4205   -7.0310  -13.5302 N   0  0  0  0  0  0  0  0  0  0  0  0
   21.2569   -6.9471  -12.1209 C   0  0  0  0  0  0  0  0  0  0  0  0
   22.1414   -6.3768  -11.4260 O   0  0  0  0  0  0  0  0  0  0  0  0
   20.0339   -7.5367  -11.4654 C   0  0  0  0  0  0  0  0  0  0  0  0
   19.1891   -8.2095  -12.5060 C   0  0  0  0  0  0  0  0  0  0  0  0
   17.9146   -8.8144  -11.9764 C   0  0  2  0  0  0  0  0  0  0  0  0
   17.2403   -9.3777  -13.1576 N   0  0  0  0  0  0  0  0  0  0  0  0
   16.9954   -7.8628  -11.3574 C   0  0  0  0  0  0  0  0  0  0  0  0
   16.3681   -7.0414  -12.0712 O   0  0  0  0  0  0  0  0  0  0  0  0
   16.7676   -7.8140   -9.9673 N   0  0  0  0  0  0  0  0  0  0  0  0
   15.8593   -6.8313   -9.3738 C   0  0  1  0  0  0  0  0  0  0  0  0
   15.2440   -7.4577   -8.1489 C   0  0  0  0  0  0  0  0  0  0  0  0
   14.2617   -6.2562   -7.2334 S   0  0  0  0  0  0  0  0  0  0  0  0
   16.6418   -5.6175   -9.0253 C   0  0  0  0  0  0  0  0  0  0  0  0
   16.1049   -4.3463   -9.1427 O   0  0  0  0  0  0  0  0  0  0  0  0
   17.8171   -5.7077   -8.6124 O   0  0  0  0  0  0  0  0  0  0  0  0
  2  1  1  1
  3  2  1  0
  4  3  1  0
  5  4  1  0
  6  7  1  0
  6  5  1  0
  8  9  2  0
  8  2  1  0
 10 11  1  0
 11 12  2  0
 13 11  1  0
 13 14  1  0
 15 14  1  6
 15 16  1  0
 16  8  1  0
 17 15  1  0
 18 17  2  0
 19 17  1  0
 20 19  1  0
 21 22  1  0
 20 21  1  1
 23 20  1  0
 23 24  1  0
 25 23  2  0
M  END
$$$$
