MAP.pdb
     RDKit          3D

 21 21  0  0  1  0  0  0  0  0999 V2000
   14.3543  -14.2062  -15.8159 C   0  0  0  0  0  0  0  0  0  0  0  0
   15.6982  -13.2302  -15.1821 S   0  0  0  0  0  0  0  0  0  0  0  0
   17.0235  -12.8543  -16.2808 C   0  0  0  0  0  0  0  0  0  0  0  0
   18.0980  -11.9174  -15.8564 C   0  0  0  0  0  0  0  0  0  0  0  0
   19.1479  -11.6366  -16.8567 C   0  0  2  0  0  0  0  0  0  0  0  0
   20.0748  -12.7381  -16.9325 N   0  0  0  0  0  0  0  0  0  0  0  0
   19.9448  -10.4124  -16.5127 C   0  0  0  0  0  0  0  0  0  0  0  0
   20.7616  -10.4695  -15.5690 O   0  0  0  0  0  0  0  0  0  0  0  0
   20.6268   -7.1979  -18.2435 C   0  0  0  0  0  0  0  0  0  0  0  0
   20.6321   -8.0293  -16.9611 C   0  0  2  0  0  0  0  0  0  0  0  0
   19.8168   -9.1909  -17.2069 N   0  0  0  0  0  0  0  0  0  0  0  0
   20.0657   -7.1698  -15.8924 C   0  0  0  0  0  0  0  0  0  0  0  0
   18.8241   -7.1924  -15.7284 O   0  0  0  0  0  0  0  0  0  0  0  0
   20.9116   -6.3620  -15.0989 N   0  0  0  0  0  0  0  0  0  0  0  0
   22.3660   -6.3597  -15.1398 C   0  0  0  0  0  0  0  0  0  0  0  0
   22.8026   -5.6266  -13.8813 C   0  0  0  0  0  0  0  0  0  0  0  0
   21.7050   -4.6009  -13.7540 C   0  0  0  0  0  0  0  0  0  0  0  0
   20.4751   -5.4067  -14.1162 C   0  0  1  0  0  0  0  0  0  0  0  0
   19.4719   -4.4574  -14.6439 C   0  0  0  0  0  0  0  0  0  0  0  0
   19.4200   -4.2837  -15.8838 O   0  0  0  0  0  0  0  0  0  0  0  0
   18.5892   -3.7517  -13.8478 O   0  0  0  0  0  0  0  0  0  0  0  0
  2  1  1  0
  3  2  1  0
  4  5  1  0
  4  3  1  0
  5  6  1  1
  7  5  1  0
  8  7  2  0
 10  9  1  6
 10 12  1  0
 10 11  1  0
 11  7  1  0
 12 14  1  0
 13 12  2  0
 14 18  1  0
 14 15  1  0
 15 16  1  0
 17 16  1  0
 18 17  1  0
 19 21  1  0
 18 19  1  6
 20 19  2  0
M  END
$$$$
