MAP.pdb
     RDKit          3D

 21 21  0  0  1  0  0  0  0  0999 V2000
   24.4062  -25.8296  -15.2925 C   0  0  0  0  0  0  0  0  0  0  0  0
   24.7378  -25.8844  -17.0382 S   0  0  0  0  0  0  0  0  0  0  0  0
   26.4190  -25.7713  -17.5539 C   0  0  0  0  0  0  0  0  0  0  0  0
   27.3756  -24.9267  -16.7898 C   0  0  0  0  0  0  0  0  0  0  0  0
   27.4780  -23.5153  -17.2130 C   0  0  2  0  0  0  0  0  0  0  0  0
   28.7464  -23.2758  -17.8552 N   0  0  0  0  0  0  0  0  0  0  0  0
   27.3853  -22.5681  -16.0527 C   0  0  0  0  0  0  0  0  0  0  0  0
   28.3316  -22.5164  -15.2387 O   0  0  0  0  0  0  0  0  0  0  0  0
   25.5853  -19.4990  -15.3178 C   0  0  0  0  0  0  0  0  0  0  0  0
   26.1693  -20.7898  -14.7445 C   0  0  2  0  0  0  0  0  0  0  0  0
   26.2744  -21.7266  -15.8335 N   0  0  0  0  0  0  0  0  0  0  0  0
   25.2262  -21.2579  -13.6989 C   0  0  0  0  0  0  0  0  0  0  0  0
   24.2310  -21.9210  -14.0718 O   0  0  0  0  0  0  0  0  0  0  0  0
   25.4586  -20.9570  -12.3377 N   0  0  0  0  0  0  0  0  0  0  0  0
   26.6596  -20.3374  -11.7984 C   0  0  0  0  0  0  0  0  0  0  0  0
   26.5891  -20.5636  -10.2965 C   0  0  0  0  0  0  0  0  0  0  0  0
   25.1028  -20.4665  -10.0633 C   0  0  0  0  0  0  0  0  0  0  0  0
   24.5457  -21.2144  -11.2564 C   0  0  1  0  0  0  0  0  0  0  0  0
   23.1899  -20.6819  -11.5103 C   0  0  0  0  0  0  0  0  0  0  0  0
   23.0578  -19.8035  -12.3940 O   0  0  0  0  0  0  0  0  0  0  0  0
   22.0615  -21.0980  -10.8286 O   0  0  0  0  0  0  0  0  0  0  0  0
  2  1  1  0
  3  2  1  0
  4  5  1  0
  4  3  1  0
  5  6  1  1
  7  5  1  0
  8  7  2  0
 10  9  1  6
 10 12  1  0
 10 11  1  0
 11  7  1  0
 12 14  1  0
 13 12  2  0
 14 18  1  0
 14 15  1  0
 15 16  1  0
 17 16  1  0
 18 17  1  0
 19 21  1  0
 18 19  1  6
 20 19  2  0
M  END
$$$$
