MAP.pdb
     RDKit          3D

 21 21  0  0  1  0  0  0  0  0999 V2000
   28.8098  -18.5473   -5.0203 C   0  0  0  0  0  0  0  0  0  0  0  0
   27.7045  -19.5639   -5.9718 S   0  0  0  0  0  0  0  0  0  0  0  0
   28.2795  -20.1620   -7.5264 C   0  0  0  0  0  0  0  0  0  0  0  0
   27.3699  -20.9466   -8.4035 C   0  0  0  0  0  0  0  0  0  0  0  0
   26.0673  -20.3226   -8.7127 C   0  0  2  0  0  0  0  0  0  0  0  0
   25.0923  -20.6765   -7.7114 N   0  0  0  0  0  0  0  0  0  0  0  0
   25.5234  -20.7736  -10.0367 C   0  0  0  0  0  0  0  0  0  0  0  0
   25.1415  -21.9567  -10.1609 O   0  0  0  0  0  0  0  0  0  0  0  0
   24.6769  -19.0399  -13.2474 C   0  0  0  0  0  0  0  0  0  0  0  0
   24.8647  -20.3149  -12.4258 C   0  0  2  0  0  0  0  0  0  0  0  0
   25.4211  -19.9220  -11.1568 N   0  0  0  0  0  0  0  0  0  0  0  0
   25.7907  -21.1845  -13.1925 C   0  0  0  0  0  0  0  0  0  0  0  0
   27.0119  -20.9089  -13.1507 O   0  0  0  0  0  0  0  0  0  0  0  0
   25.2949  -22.2791  -13.9366 N   0  0  0  0  0  0  0  0  0  0  0  0
   23.9106  -22.7263  -13.9687 C   0  0  0  0  0  0  0  0  0  0  0  0
   23.9507  -24.1146  -14.5873 C   0  0  0  0  0  0  0  0  0  0  0  0
   25.0768  -23.9532  -15.5767 C   0  0  0  0  0  0  0  0  0  0  0  0
   26.0773  -23.1356  -14.7869 C   0  0  1  0  0  0  0  0  0  0  0  0
   26.8941  -22.3842  -15.7638 C   0  0  0  0  0  0  0  0  0  0  0  0
   26.5005  -21.2458  -16.1091 O   0  0  0  0  0  0  0  0  0  0  0  0
   28.0659  -22.8661  -16.3169 O   0  0  0  0  0  0  0  0  0  0  0  0
  2  1  1  0
  3  2  1  0
  4  5  1  0
  4  3  1  0
  5  6  1  1
  7  5  1  0
  8  7  2  0
 10  9  1  6
 10 12  1  0
 10 11  1  0
 11  7  1  0
 12 14  1  0
 13 12  2  0
 14 18  1  0
 14 15  1  0
 15 16  1  0
 17 16  1  0
 18 17  1  0
 19 21  1  0
 18 19  1  6
 20 19  2  0
M  END
$$$$
