MAP.pdb
     RDKit          3D

 21 21  0  0  1  0  0  0  0  0999 V2000
   21.3906  -25.4530  -19.3111 C   0  0  0  0  0  0  0  0  0  0  0  0
   21.4860  -23.8469  -20.0673 S   0  0  0  0  0  0  0  0  0  0  0  0
   22.1516  -22.5294  -19.1048 C   0  0  0  0  0  0  0  0  0  0  0  0
   21.5086  -22.1502  -17.8183 C   0  0  0  0  0  0  0  0  0  0  0  0
   22.2059  -22.5838  -16.5906 C   0  0  2  0  0  0  0  0  0  0  0  0
   21.5227  -22.0842  -15.4235 N   0  0  0  0  0  0  0  0  0  0  0  0
   23.6154  -22.0723  -16.5293 C   0  0  0  0  0  0  0  0  0  0  0  0
   23.8069  -20.8424  -16.4206 O   0  0  0  0  0  0  0  0  0  0  0  0
   26.9708  -23.7110  -16.2528 C   0  0  0  0  0  0  0  0  0  0  0  0
   26.1031  -22.4662  -16.4361 C   0  0  2  0  0  0  0  0  0  0  0  0
   24.7437  -22.9171  -16.5887 N   0  0  0  0  0  0  0  0  0  0  0  0
   26.5986  -21.7754  -17.6522 C   0  0  0  0  0  0  0  0  0  0  0  0
   26.0859  -22.0956  -18.7493 O   0  0  0  0  0  0  0  0  0  0  0  0
   27.6121  -20.7949  -17.5566 N   0  0  0  0  0  0  0  0  0  0  0  0
   28.1780  -20.2769  -16.3203 C   0  0  0  0  0  0  0  0  0  0  0  0
   28.9322  -19.0185  -16.7196 C   0  0  0  0  0  0  0  0  0  0  0  0
   29.4437  -19.4131  -18.0818 C   0  0  0  0  0  0  0  0  0  0  0  0
   28.2535  -20.1439  -18.6673 C   0  0  1  0  0  0  0  0  0  0  0  0
   28.7770  -21.0980  -19.6680 C   0  0  0  0  0  0  0  0  0  0  0  0
   28.8477  -22.3075  -19.3485 O   0  0  0  0  0  0  0  0  0  0  0  0
   29.1923  -20.7314  -20.9347 O   0  0  0  0  0  0  0  0  0  0  0  0
  2  1  1  0
  3  2  1  0
  4  5  1  0
  4  3  1  0
  5  6  1  1
  7  5  1  0
  8  7  2  0
 10  9  1  6
 10 12  1  0
 10 11  1  0
 11  7  1  0
 12 14  1  0
 13 12  2  0
 14 18  1  0
 14 15  1  0
 15 16  1  0
 17 16  1  0
 18 17  1  0
 19 21  1  0
 18 19  1  6
 20 19  2  0
M  END
$$$$
