MAP.pdb
     RDKit          3D

 21 21  0  0  1  0  0  0  0  0999 V2000
 3787.5564-76894.0625-19100.1348 C   0  0  0  0  0  0  0  0  0  0  0  0
 3785.9375-76894.3906-19100.7715 S   0  0  0  0  0  0  0  0  0  0  0  0
 3784.6484-76894.6250-19099.5938 C   0  0  0  0  0  0  0  0  0  0  0  0
 3784.9421-76894.9453-19098.1855 C   0  0  0  0  0  0  0  0  0  0  0  0
 3784.6873-76893.8906-19097.1660 C   0  0  2  0  0  0  0  0  0  0  0  0
 3784.6094-76894.5000-19095.8418 N   0  0  0  0  0  0  0  0  0  0  0  0
 3783.3813-76893.1953-19097.4062 C   0  0  0  0  0  0  0  0  0  0  0  0
 3783.3042-76891.9844-19097.1465 O   0  0  0  0  0  0  0  0  0  0  0  0
 3782.5962-76895.5469-19096.3184 C   0  0  0  0  0  0  0  0  0  0  0  0
 3781.7017-76895.0547-19097.4707 C   0  0  2  0  0  0  0  0  0  0  0  0
 3782.2578-76893.8281-19097.9648 N   0  0  0  0  0  0  0  0  0  0  0  0
 3780.3435-76894.8594-19096.8867 C   0  0  0  0  0  0  0  0  0  0  0  0
 3779.3687-76894.9297-19097.6777 O   0  0  0  0  0  0  0  0  0  0  0  0
 3780.1741-76894.5938-19095.5137 N   0  0  0  0  0  0  0  0  0  0  0  0
 3781.2502-76894.5156-19094.5293 C   0  0  0  0  0  0  0  0  0  0  0  0
 3780.5232-76894.6094-19093.1895 C   0  0  0  0  0  0  0  0  0  0  0  0
 3779.2673-76893.8516-19093.4805 C   0  0  0  0  0  0  0  0  0  0  0  0
 3778.9048-76894.3516-19094.8613 C   0  0  1  0  0  0  0  0  0  0  0  0
 3778.1311-76893.3125-19095.5469 C   0  0  0  0  0  0  0  0  0  0  0  0
 3778.1433-76892.1484-19095.0898 O   0  0  0  0  0  0  0  0  0  0  0  0
 3777.4119-76893.5469-19096.7344 O   0  0  0  0  0  0  0  0  0  0  0  0
  2  1  1  0
  3  2  1  0
  4  5  1  0
  4  3  1  0
  5  6  1  1
  7  5  1  0
  8  7  2  0
 10  9  1  1
 10 12  1  0
 10 11  1  0
 11  7  1  0
 12 14  1  0
 13 12  2  0
 14 18  1  0
 14 15  1  0
 15 16  1  0
 17 16  1  0
 18 17  1  0
 19 21  1  0
 18 19  1  6
 20 19  2  0
M  END
$$$$
