MAP.pdb
     RDKit          3D

 21 21  0  0  1  0  0  0  0  0999 V2000
   29.7318  -15.3265  -16.4526 C   0  0  0  0  0  0  0  0  0  0  0  0
   28.4135  -14.1864  -16.1021 S   0  0  0  0  0  0  0  0  0  0  0  0
   26.7638  -14.8029  -16.1603 C   0  0  0  0  0  0  0  0  0  0  0  0
   26.5051  -16.1911  -16.6275 C   0  0  0  0  0  0  0  0  0  0  0  0
   25.0890  -16.6089  -16.6709 C   0  0  2  0  0  0  0  0  0  0  0  0
   24.2337  -15.4619  -16.8478 N   0  0  0  0  0  0  0  0  0  0  0  0
   24.6598  -17.2878  -15.4032 C   0  0  0  0  0  0  0  0  0  0  0  0
   24.2731  -16.5865  -14.4442 O   0  0  0  0  0  0  0  0  0  0  0  0
   22.9137  -20.1184  -14.4840 C   0  0  0  0  0  0  0  0  0  0  0  0
   24.1814  -19.3722  -14.0694 C   0  0  2  0  0  0  0  0  0  0  0  0
   24.6714  -18.6889  -15.2388 N   0  0  0  0  0  0  0  0  0  0  0  0
   25.1393  -20.3952  -13.5823 C   0  0  0  0  0  0  0  0  0  0  0  0
   25.7289  -21.0916  -14.4405 O   0  0  0  0  0  0  0  0  0  0  0  0
   25.3654  -20.5632  -12.1973 N   0  0  0  0  0  0  0  0  0  0  0  0
   24.8345  -19.7145  -11.1414 C   0  0  0  0  0  0  0  0  0  0  0  0
   25.6395  -20.0655   -9.9002 C   0  0  0  0  0  0  0  0  0  0  0  0
   25.8659  -21.5405  -10.1153 C   0  0  0  0  0  0  0  0  0  0  0  0
   26.1602  -21.6024  -11.5995 C   0  0  1  0  0  0  0  0  0  0  0  0
   25.7809  -22.9542  -12.0630 C   0  0  0  0  0  0  0  0  0  0  0  0
   24.7019  -23.0819  -12.6871 O   0  0  0  0  0  0  0  0  0  0  0  0
   26.5484  -24.0835  -11.8468 O   0  0  0  0  0  0  0  0  0  0  0  0
  2  1  1  0
  3  2  1  0
  4  5  1  0
  4  3  1  0
  5  6  1  1
  7  5  1  0
  8  7  2  0
 10  9  1  6
 10 12  1  0
 10 11  1  0
 11  7  1  0
 12 14  1  0
 13 12  2  0
 14 18  1  0
 14 15  1  0
 15 16  1  0
 17 16  1  0
 18 17  1  0
 19 21  1  0
 18 19  1  6
 20 19  2  0
M  END
$$$$
