MAP.pdb
     RDKit          3D

 21 21  0  0  1  0  0  0  0  0999 V2000
   29.8536  -18.8995  -19.4819 C   0  0  0  0  0  0  0  0  0  0  0  0
   29.9747  -20.4281  -20.3814 S   0  0  0  0  0  0  0  0  0  0  0  0
   29.6198  -21.9183  -19.5106 C   0  0  0  0  0  0  0  0  0  0  0  0
   29.6562  -21.9371  -18.0238 C   0  0  0  0  0  0  0  0  0  0  0  0
   28.3912  -22.2888  -17.3472 C   0  0  2  0  0  0  0  0  0  0  0  0
   27.2644  -21.8647  -18.1402 N   0  0  0  0  0  0  0  0  0  0  0  0
   28.2622  -21.6252  -16.0073 C   0  0  0  0  0  0  0  0  0  0  0  0
   29.1281  -21.8523  -15.1356 O   0  0  0  0  0  0  0  0  0  0  0  0
   26.7388  -18.6595  -14.6264 C   0  0  0  0  0  0  0  0  0  0  0  0
   27.0264  -20.1414  -14.3876 C   0  0  2  0  0  0  0  0  0  0  0  0
   27.2042  -20.7513  -15.6802 N   0  0  0  0  0  0  0  0  0  0  0  0
   25.8513  -20.6944  -13.6699 C   0  0  0  0  0  0  0  0  0  0  0  0
   24.8929  -21.1089  -14.3616 O   0  0  0  0  0  0  0  0  0  0  0  0
   25.8323  -20.7436  -12.2575 N   0  0  0  0  0  0  0  0  0  0  0  0
   26.9399  -20.3941  -11.3810 C   0  0  0  0  0  0  0  0  0  0  0  0
   26.5661  -20.9542  -10.0178 C   0  0  0  0  0  0  0  0  0  0  0  0
   25.0710  -20.7602  -10.0304 C   0  0  0  0  0  0  0  0  0  0  0  0
   24.7134  -21.1488  -11.4496 C   0  0  1  0  0  0  0  0  0  0  0  0
   23.4662  -20.4342  -11.7960 C   0  0  0  0  0  0  0  0  0  0  0  0
   23.5588  -19.3732  -12.4560 O   0  0  0  0  0  0  0  0  0  0  0  0
   22.2054  -20.8702  -11.4333 O   0  0  0  0  0  0  0  0  0  0  0  0
  2  1  1  0
  3  2  1  0
  4  5  1  0
  4  3  1  0
  5  6  1  6
  7  5  1  0
  8  7  2  0
 10  9  1  6
 10 12  1  0
 10 11  1  0
 11  7  1  0
 12 14  1  0
 13 12  2  0
 14 18  1  0
 14 15  1  0
 15 16  1  0
 17 16  1  0
 18 17  1  0
 19 21  1  0
 18 19  1  6
 20 19  2  0
M  END
$$$$
