MAP.pdb
     RDKit          3D

 21 21  0  0  1  0  0  0  0  0999 V2000
   12.6569  -13.5202  -11.6483 C   0  0  0  0  0  0  0  0  0  0  0  0
   11.1778  -12.8795  -10.8985 S   0  0  0  0  0  0  0  0  0  0  0  0
   11.3647  -11.7335   -9.5730 C   0  0  0  0  0  0  0  0  0  0  0  0
   11.9393  -10.3861   -9.8309 C   0  0  0  0  0  0  0  0  0  0  0  0
   12.1327   -9.5246   -8.6467 C   0  0  2  0  0  0  0  0  0  0  0  0
   10.8601   -9.0686   -8.1459 N   0  0  0  0  0  0  0  0  0  0  0  0
   12.9460   -8.3033   -8.9617 C   0  0  0  0  0  0  0  0  0  0  0  0
   12.3554   -7.2564   -9.3026 O   0  0  0  0  0  0  0  0  0  0  0  0
   16.2299   -6.9593   -8.2225 C   0  0  0  0  0  0  0  0  0  0  0  0
   15.1670   -7.1616   -9.3020 C   0  0  2  0  0  0  0  0  0  0  0  0
   14.3548   -8.2780   -8.8917 N   0  0  0  0  0  0  0  0  0  0  0  0
   15.8907   -7.4374  -10.5676 C   0  0  0  0  0  0  0  0  0  0  0  0
   16.4257   -8.5629  -10.6953 O   0  0  0  0  0  0  0  0  0  0  0  0
   15.9631   -6.4544  -11.5805 N   0  0  0  0  0  0  0  0  0  0  0  0
   15.3633   -5.1300  -11.5225 C   0  0  0  0  0  0  0  0  0  0  0  0
   15.3962   -4.6106  -12.9510 C   0  0  0  0  0  0  0  0  0  0  0  0
   16.6888   -5.2111  -13.4427 C   0  0  0  0  0  0  0  0  0  0  0  0
   16.6420   -6.5996  -12.8402 C   0  0  1  0  0  0  0  0  0  0  0  0
   18.0400   -7.0568  -12.6899 C   0  0  0  0  0  0  0  0  0  0  0  0
   18.6687   -7.3803  -13.7243 O   0  0  0  0  0  0  0  0  0  0  0  0
   18.6917   -7.1473  -11.4740 O   0  0  0  0  0  0  0  0  0  0  0  0
  2  1  1  0
  3  2  1  0
  4  5  1  0
  4  3  1  0
  5  6  1  6
  7  5  1  0
  8  7  2  0
 10  9  1  1
 10 12  1  0
 10 11  1  0
 11  7  1  0
 12 14  1  0
 13 12  2  0
 14 18  1  0
 14 15  1  0
 15 16  1  0
 17 16  1  0
 18 17  1  0
 19 21  1  0
 18 19  1  1
 20 19  2  0
M  END
$$$$
