MAP.pdb
     RDKit          3D

 21 21  0  0  1  0  0  0  0  0999 V2000
   21.8844  -20.5862  -12.5212 C   0  0  0  0  0  0  0  0  0  0  0  0
   22.1680  -19.8276  -10.9386 S   0  0  0  0  0  0  0  0  0  0  0  0
   22.8909  -20.8205   -9.6750 C   0  0  0  0  0  0  0  0  0  0  0  0
   24.3029  -21.2709   -9.8002 C   0  0  0  0  0  0  0  0  0  0  0  0
   25.2679  -20.2593  -10.2770 C   0  0  2  0  0  0  0  0  0  0  0  0
   25.7394  -20.5996  -11.5962 N   0  0  0  0  0  0  0  0  0  0  0  0
   26.4736  -20.1639   -9.3887 C   0  0  0  0  0  0  0  0  0  0  0  0
   27.3833  -21.0113   -9.5129 O   0  0  0  0  0  0  0  0  0  0  0  0
   27.8593  -17.5161   -7.1867 C   0  0  0  0  0  0  0  0  0  0  0  0
   27.8181  -18.9830   -7.6138 C   0  0  2  0  0  0  0  0  0  0  0  0
   26.6325  -19.1576   -8.4128 N   0  0  0  0  0  0  0  0  0  0  0  0
   27.7721  -19.7892   -6.3689 C   0  0  0  0  0  0  0  0  0  0  0  0
   26.6454  -20.0359   -5.8802 O   0  0  0  0  0  0  0  0  0  0  0  0
   28.9658  -20.2530   -5.7711 N   0  0  0  0  0  0  0  0  0  0  0  0
   30.2795  -20.2646   -6.3965 C   0  0  0  0  0  0  0  0  0  0  0  0
   31.1319  -21.1732   -5.5249 C   0  0  0  0  0  0  0  0  0  0  0  0
   30.5670  -20.8706   -4.1602 C   0  0  0  0  0  0  0  0  0  0  0  0
   29.0813  -20.7928   -4.4428 C   0  0  1  0  0  0  0  0  0  0  0  0
   28.4871  -19.9146   -3.4124 C   0  0  0  0  0  0  0  0  0  0  0  0
   28.2180  -18.7326   -3.7293 O   0  0  0  0  0  0  0  0  0  0  0  0
   28.2120  -20.3236   -2.1208 O   0  0  0  0  0  0  0  0  0  0  0  0
  2  1  1  0
  3  2  1  0
  4  5  1  0
  4  3  1  0
  5  6  1  6
  7  5  1  0
  8  7  2  0
 10  9  1  1
 10 12  1  0
 10 11  1  0
 11  7  1  0
 12 14  1  0
 13 12  2  0
 14 18  1  0
 14 15  1  0
 15 16  1  0
 17 16  1  0
 18 17  1  0
 19 21  1  0
 18 19  1  1
 20 19  2  0
M  END
$$$$
