MAP.pdb
     RDKit          3D

 21 21  0  0  1  0  0  0  0  0999 V2000
   20.7051  -20.1096   -9.5087 C   0  0  0  0  0  0  0  0  0  0  0  0
   21.4541  -21.2589  -10.6394 S   0  0  0  0  0  0  0  0  0  0  0  0
   23.1132  -20.9449  -11.1434 C   0  0  0  0  0  0  0  0  0  0  0  0
   24.0661  -20.2979  -10.2023 C   0  0  0  0  0  0  0  0  0  0  0  0
   25.4239  -20.0433  -10.7251 C   0  0  2  0  0  0  0  0  0  0  0  0
   25.7742  -21.0335  -11.7126 N   0  0  0  0  0  0  0  0  0  0  0  0
   26.4667  -20.1067   -9.6477 C   0  0  0  0  0  0  0  0  0  0  0  0
   27.1673  -21.1361   -9.5458 O   0  0  0  0  0  0  0  0  0  0  0  0
   27.9679  -17.5213   -7.4186 C   0  0  0  0  0  0  0  0  0  0  0  0
   27.8322  -18.9801   -7.8537 C   0  0  2  0  0  0  0  0  0  0  0  0
   26.6971  -19.0541   -8.7371 N   0  0  0  0  0  0  0  0  0  0  0  0
   27.6273  -19.7769   -6.6189 C   0  0  0  0  0  0  0  0  0  0  0  0
   26.4474  -20.0222   -6.2773 O   0  0  0  0  0  0  0  0  0  0  0  0
   28.7348  -20.2336   -5.8688 N   0  0  0  0  0  0  0  0  0  0  0  0
   30.1181  -20.2464   -6.3196 C   0  0  0  0  0  0  0  0  0  0  0  0
   30.8524  -21.1469   -5.3389 C   0  0  0  0  0  0  0  0  0  0  0  0
   30.1158  -20.8362   -4.0606 C   0  0  0  0  0  0  0  0  0  0  0  0
   28.6789  -20.7638   -4.5329 C   0  0  1  0  0  0  0  0  0  0  0  0
   27.9555  -19.8800   -3.5940 C   0  0  0  0  0  0  0  0  0  0  0  0
   27.7576  -18.6913   -3.9374 O   0  0  0  0  0  0  0  0  0  0  0  0
   27.4858  -20.2905   -2.3603 O   0  0  0  0  0  0  0  0  0  0  0  0
  2  1  1  0
  3  2  1  0
  4  5  1  0
  4  3  1  0
  5  6  1  6
  7  5  1  0
  8  7  2  0
 10  9  1  1
 10 12  1  0
 10 11  1  0
 11  7  1  0
 12 14  1  0
 13 12  2  0
 14 18  1  0
 14 15  1  0
 15 16  1  0
 17 16  1  0
 18 17  1  0
 19 21  1  0
 18 19  1  1
 20 19  2  0
M  END
$$$$
