MAP.pdb
     RDKit          3D

 21 21  0  0  1  0  0  0  0  0999 V2000
   28.3481  -21.8722  -15.2877 C   0  0  0  0  0  0  0  0  0  0  0  0
   27.0361  -23.0409  -15.5582 S   0  0  0  0  0  0  0  0  0  0  0  0
   25.6231  -22.9393  -14.5103 C   0  0  0  0  0  0  0  0  0  0  0  0
   24.9609  -21.6275  -14.2804 C   0  0  0  0  0  0  0  0  0  0  0  0
   25.7355  -20.6350  -13.5080 C   0  0  2  0  0  0  0  0  0  0  0  0
   25.5463  -20.8426  -12.0939 N   0  0  0  0  0  0  0  0  0  0  0  0
   25.3106  -19.2273  -13.8078 C   0  0  0  0  0  0  0  0  0  0  0  0
   24.2477  -18.7987  -13.3101 O   0  0  0  0  0  0  0  0  0  0  0  0
   26.9669  -16.2035  -15.1168 C   0  0  0  0  0  0  0  0  0  0  0  0
   25.6764  -17.0009  -14.9311 C   0  0  2  0  0  0  0  0  0  0  0  0
   26.0569  -18.3570  -14.6299 N   0  0  0  0  0  0  0  0  0  0  0  0
   24.9277  -16.9054  -16.2086 C   0  0  0  0  0  0  0  0  0  0  0  0
   25.2368  -17.7049  -17.1220 O   0  0  0  0  0  0  0  0  0  0  0  0
   23.9065  -15.9417  -16.3704 N   0  0  0  0  0  0  0  0  0  0  0  0
   23.3821  -15.0769  -15.3243 C   0  0  0  0  0  0  0  0  0  0  0  0
   22.0875  -14.5087  -15.8837 C   0  0  0  0  0  0  0  0  0  0  0  0
   22.4413  -14.3777  -17.3434 C   0  0  0  0  0  0  0  0  0  0  0  0
   23.2136  -15.6552  -17.5978 C   0  0  1  0  0  0  0  0  0  0  0  0
   24.1307  -15.3924  -18.7273 C   0  0  0  0  0  0  0  0  0  0  0  0
   25.3053  -15.0444  -18.4640 O   0  0  0  0  0  0  0  0  0  0  0  0
   23.7660  -15.5089  -20.0557 O   0  0  0  0  0  0  0  0  0  0  0  0
  2  1  1  0
  3  2  1  0
  4  5  1  0
  4  3  1  0
  5  6  1  1
  7  5  1  0
  8  7  2  0
 10  9  1  6
 10 12  1  0
 10 11  1  0
 11  7  1  0
 12 14  1  0
 13 12  2  0
 14 18  1  0
 14 15  1  0
 15 16  1  0
 17 16  1  0
 18 17  1  0
 19 21  1  0
 18 19  1  6
 20 19  2  0
M  END
$$$$
