AYG.pdb
     RDKit          3D

 22 22  0  0  1  0  0  0  0  0999 V2000
    7.3630  -15.1190   19.5490 C   0  0  0  0  0  0  0  0  0  0  0  0
    7.5354  -13.8125   20.2980 C   0  0  2  0  0  0  0  0  0  0  0  0
    8.1166  -12.8066   19.4177 N   0  0  0  0  0  0  0  0  0  0  0  0
    8.4256  -14.0238   21.4698 C   0  0  0  0  0  0  0  0  0  0  0  0
    9.5955  -13.5987   21.4483 O   0  0  0  0  0  0  0  0  0  0  0  0
    5.7010  -10.3908   27.2216 O   0  0  0  0  0  0  0  0  0  0  0  0
    6.2001  -11.5675   26.6877 C   0  0  0  0  0  0  0  0  0  0  0  0
    5.4445  -12.7134   26.6250 C   0  0  0  0  0  0  0  0  0  0  0  0
    5.9907  -13.8524   26.0850 C   0  0  0  0  0  0  0  0  0  0  0  0
    7.2821  -13.9005   25.5952 C   0  0  0  0  0  0  0  0  0  0  0  0
    7.8767  -15.1183   25.0139 C   0  0  0  0  0  0  0  0  0  0  0  0
    8.7111  -14.8155   23.7878 C   0  0  2  0  0  0  0  0  0  0  0  0
    7.9257  -14.7088   22.5970 N   0  0  0  0  0  0  0  0  0  0  0  0
    9.7038  -15.9132   23.6240 C   0  0  0  0  0  0  0  0  0  0  0  0
   10.6132  -16.0993   24.4798 O   0  0  0  0  0  0  0  0  0  0  0  0
    8.0217  -12.7388   25.6685 C   0  0  0  0  0  0  0  0  0  0  0  0
    7.5128  -11.5790   26.2010 C   0  0  0  0  0  0  0  0  0  0  0  0
    9.6701  -16.7862   22.5121 N   0  0  0  0  0  0  0  0  0  0  0  0
   10.7040  -17.7626   22.2853 C   0  0  0  0  0  0  0  0  0  0  0  0
   10.4341  -18.9972   23.0659 C   0  0  0  0  0  0  0  0  0  0  0  0
    9.5314  -19.0229   23.9408 O   0  0  0  0  0  0  0  0  0  0  0  0
   11.1774  -20.1479   22.8415 O   0  0  0  0  0  0  0  0  0  0  0  0
  2  1  1  6
  2  4  1  0
  3  2  1  0
  4 13  1  0
  4  5  2  0
  7  6  1  0
  8  7  2  0
  9  8  1  0
 10 16  1  0
 10  9  2  0
 11 10  1  0
 12 11  1  1
 13 12  1  0
 14 12  1  0
 14 18  1  0
 15 14  2  0
 16 17  2  0
 17  7  1  0
 19 18  1  0
 19 20  1  0
 20 21  2  0
 20 22  1  0
M  END
$$$$
