AYG.pdb
     RDKit          3D

 22 22  0  0  1  0  0  0  0  0999 V2000
    5.6845  -15.4397   20.6291 C   0  0  0  0  0  0  0  0  0  0  0  0
    7.1322  -15.0048   20.7417 C   0  0  2  0  0  0  0  0  0  0  0  0
    7.9185  -15.6094   19.6737 N   0  0  0  0  0  0  0  0  0  0  0  0
    7.6769  -15.4234   22.0601 C   0  0  0  0  0  0  0  0  0  0  0  0
    8.2487  -16.5230   22.1774 O   0  0  0  0  0  0  0  0  0  0  0  0
   11.0862  -15.0154   30.0436 O   0  0  0  0  0  0  0  0  0  0  0  0
   10.3367  -14.6786   28.9284 C   0  0  0  0  0  0  0  0  0  0  0  0
    9.3415  -13.7328   28.9821 C   0  0  0  0  0  0  0  0  0  0  0  0
    8.6295  -13.4380   27.8448 C   0  0  0  0  0  0  0  0  0  0  0  0
    8.8705  -14.0566   26.6327 C   0  0  0  0  0  0  0  0  0  0  0  0
    8.1115  -13.7468   25.4069 C   0  0  0  0  0  0  0  0  0  0  0  0
    8.1045  -14.9055   24.4330 C   0  0  2  0  0  0  0  0  0  0  0  0
    7.5358  -14.5600   23.1667 N   0  0  0  0  0  0  0  0  0  0  0  0
    7.3144  -16.0122   25.0399 C   0  0  0  0  0  0  0  0  0  0  0  0
    6.0726  -15.8928   25.2342 O   0  0  0  0  0  0  0  0  0  0  0  0
    9.8737  -15.0024   26.6025 C   0  0  0  0  0  0  0  0  0  0  0  0
   10.6088  -15.3260   27.7172 C   0  0  0  0  0  0  0  0  0  0  0  0
    7.9167  -17.2335   25.4211 N   0  0  0  0  0  0  0  0  0  0  0  0
    7.1410  -18.3300   25.9403 C   0  0  0  0  0  0  0  0  0  0  0  0
    8.0239  -19.4717   26.2917 C   0  0  0  0  0  0  0  0  0  0  0  0
    7.5495  -20.5251   26.7880 O   0  0  0  0  0  0  0  0  0  0  0  0
    9.3931  -19.3941   26.0769 O   0  0  0  0  0  0  0  0  0  0  0  0
  2  1  1  1
  2  4  1  0
  3  2  1  0
  4 13  1  0
  4  5  2  0
  7  6  1  0
  8  7  2  0
  9  8  1  0
 10 16  1  0
 10  9  2  0
 11 10  1  0
 12 11  1  1
 13 12  1  0
 14 12  1  0
 14 18  1  0
 15 14  2  0
 16 17  2  0
 17  7  1  0
 19 18  1  0
 19 20  1  0
 20 21  2  0
 20 22  1  0
M  END
$$$$
