AYG.pdb
     RDKit          3D

 22 22  0  0  1  0  0  0  0  0999 V2000
    5.4815  -20.0822   22.6611 C   0  0  0  0  0  0  0  0  0  0  0  0
    5.8424  -18.6791   22.2154 C   0  0  2  0  0  0  0  0  0  0  0  0
    6.3585  -18.7067   20.8526 N   0  0  0  0  0  0  0  0  0  0  0  0
    6.8728  -18.1163   23.1274 C   0  0  0  0  0  0  0  0  0  0  0  0
    8.0711  -18.4169   22.9748 O   0  0  0  0  0  0  0  0  0  0  0  0
    7.7287  -11.7799   20.9409 O   0  0  0  0  0  0  0  0  0  0  0  0
    7.6134  -12.6511   22.0116 C   0  0  0  0  0  0  0  0  0  0  0  0
    8.2772  -13.8537   22.0430 C   0  0  0  0  0  0  0  0  0  0  0  0
    8.1262  -14.6790   23.1309 C   0  0  0  0  0  0  0  0  0  0  0  0
    7.3271  -14.3519   24.2099 C   0  0  0  0  0  0  0  0  0  0  0  0
    7.1590  -15.2312   25.3817 C   0  0  0  0  0  0  0  0  0  0  0  0
    7.4402  -16.6813   25.0510 C   0  0  2  0  0  0  0  0  0  0  0  0
    6.4721  -17.2430   24.1602 N   0  0  0  0  0  0  0  0  0  0  0  0
    7.4403  -17.4524   26.3248 C   0  0  0  0  0  0  0  0  0  0  0  0
    6.3588  -17.7426   26.9081 O   0  0  0  0  0  0  0  0  0  0  0  0
    6.6706  -13.1403   24.1566 C   0  0  0  0  0  0  0  0  0  0  0  0
    6.7948  -12.2865   23.0874 C   0  0  0  0  0  0  0  0  0  0  0  0
    8.6417  -17.8885   26.9298 N   0  0  0  0  0  0  0  0  0  0  0  0
    8.6382  -18.7373   28.0931 C   0  0  0  0  0  0  0  0  0  0  0  0
   10.0279  -19.0671   28.5008 C   0  0  0  0  0  0  0  0  0  0  0  0
   11.0096  -18.6849   27.8144 O   0  0  0  0  0  0  0  0  0  0  0  0
   10.2668  -19.8061   29.6514 O   0  0  0  0  0  0  0  0  0  0  0  0
  2  1  1  1
  2  4  1  0
  3  2  1  0
  4 13  1  0
  4  5  2  0
  7  6  1  0
  8  7  2  0
  9  8  1  0
 10 16  1  0
 10  9  2  0
 11 10  1  0
 12 11  1  1
 13 12  1  0
 14 12  1  0
 14 18  1  0
 15 14  2  0
 16 17  2  0
 17  7  1  0
 19 18  1  0
 19 20  1  0
 20 21  2  0
 20 22  1  0
M  END
$$$$
