AYG.pdb
     RDKit          3D

 22 22  0  0  1  0  0  0  0  0999 V2000
    7.4023  -15.0379   19.6822 C   0  0  0  0  0  0  0  0  0  0  0  0
    7.4357  -13.7011   20.3959 C   0  0  2  0  0  0  0  0  0  0  0  0
    7.9736  -12.6766   19.5096 N   0  0  0  0  0  0  0  0  0  0  0  0
    8.2863  -13.8060   21.6107 C   0  0  0  0  0  0  0  0  0  0  0  0
    9.4888  -13.4884   21.5587 O   0  0  0  0  0  0  0  0  0  0  0  0
   10.9313  -15.2314   29.8357 O   0  0  0  0  0  0  0  0  0  0  0  0
   10.1503  -14.9967   28.7160 C   0  0  0  0  0  0  0  0  0  0  0  0
    9.9980  -13.7369   28.1890 C   0  0  0  0  0  0  0  0  0  0  0  0
    9.2112  -13.5621   27.0765 C   0  0  0  0  0  0  0  0  0  0  0  0
    8.5567  -14.6081   26.4541 C   0  0  0  0  0  0  0  0  0  0  0  0
    7.7102  -14.4301   25.2597 C   0  0  0  0  0  0  0  0  0  0  0  0
    8.5190  -14.4478   23.9804 C   0  0  2  0  0  0  0  0  0  0  0  0
    7.7116  -14.2679   22.8133 N   0  0  0  0  0  0  0  0  0  0  0  0
    9.2179  -15.7599   23.8958 C   0  0  0  0  0  0  0  0  0  0  0  0
    8.5686  -16.8336   23.7558 O   0  0  0  0  0  0  0  0  0  0  0  0
    8.7240  -15.8633   27.0003 C   0  0  0  0  0  0  0  0  0  0  0  0
    9.5021  -16.0805   28.1116 C   0  0  0  0  0  0  0  0  0  0  0  0
   10.6268  -15.8578   23.9681 N   0  0  0  0  0  0  0  0  0  0  0  0
   11.3078  -17.1144   23.7921 C   0  0  0  0  0  0  0  0  0  0  0  0
   11.8723  -17.5856   25.0827 C   0  0  0  0  0  0  0  0  0  0  0  0
   13.0662  -17.3412   25.3922 O   0  0  0  0  0  0  0  0  0  0  0  0
   11.0877  -18.3068   25.9722 O   0  0  0  0  0  0  0  0  0  0  0  0
  2  1  1  6
  2  4  1  0
  3  2  1  0
  4 13  1  0
  4  5  2  0
  7  6  1  0
  8  7  2  0
  9  8  1  0
 10 16  1  0
 10  9  2  0
 11 10  1  0
 12 11  1  1
 13 12  1  0
 14 12  1  0
 14 18  1  0
 15 14  2  0
 16 17  2  0
 17  7  1  0
 19 18  1  0
 19 20  1  0
 20 21  2  0
 20 22  1  0
M  END
$$$$
