AYG.pdb
     RDKit          3D

 22 22  0  0  1  0  0  0  0  0999 V2000
    8.3723  -15.6175   18.4335 C   0  0  0  0  0  0  0  0  0  0  0  0
    7.8042  -14.2731   18.8429 C   0  0  2  0  0  0  0  0  0  0  0  0
    8.2599  -13.2387   17.9228 N   0  0  0  0  0  0  0  0  0  0  0  0
    8.2487  -13.9439   20.2229 C   0  0  0  0  0  0  0  0  0  0  0  0
    9.2132  -13.1771   20.4006 O   0  0  0  0  0  0  0  0  0  0  0  0
    7.3937  -11.7299   28.5772 O   0  0  0  0  0  0  0  0  0  0  0  0
    7.2317  -12.3804   27.3650 C   0  0  0  0  0  0  0  0  0  0  0  0
    7.7800  -13.6175   27.1268 C   0  0  0  0  0  0  0  0  0  0  0  0
    7.5873  -14.2165   25.9056 C   0  0  0  0  0  0  0  0  0  0  0  0
    6.8580  -13.6251   24.8915 C   0  0  0  0  0  0  0  0  0  0  0  0
    6.6460  -14.2604   23.5777 C   0  0  0  0  0  0  0  0  0  0  0  0
    7.8241  -14.0565   22.6495 C   0  0  2  0  0  0  0  0  0  0  0  0
    7.5642  -14.5109   21.3182 N   0  0  0  0  0  0  0  0  0  0  0  0
    8.9839  -14.8063   23.2061 C   0  0  0  0  0  0  0  0  0  0  0  0
    9.4644  -14.5135   24.3363 O   0  0  0  0  0  0  0  0  0  0  0  0
    6.3172  -12.3838   25.1530 C   0  0  0  0  0  0  0  0  0  0  0  0
    6.4865  -11.7509   26.3607 C   0  0  0  0  0  0  0  0  0  0  0  0
    9.5911  -15.8692   22.4981 N   0  0  0  0  0  0  0  0  0  0  0  0
   10.7910  -16.5073   22.9741 C   0  0  0  0  0  0  0  0  0  0  0  0
   10.4555  -17.6660   23.8408 C   0  0  0  0  0  0  0  0  0  0  0  0
    9.9457  -17.4953   24.9774 O   0  0  0  0  0  0  0  0  0  0  0  0
   10.7003  -18.9622   23.4083 O   0  0  0  0  0  0  0  0  0  0  0  0
  2  1  1  6
  2  4  1  0
  3  2  1  0
  4 13  1  0
  4  5  2  0
  7  6  1  0
  8  7  2  0
  9  8  1  0
 10 16  1  0
 10  9  2  0
 11 10  1  0
 12 11  1  1
 13 12  1  0
 14 12  1  0
 14 18  1  0
 15 14  2  0
 16 17  2  0
 17  7  1  0
 19 18  1  0
 19 20  1  0
 20 21  2  0
 20 22  1  0
M  END
$$$$
