FHE.pdb
     RDKit          3D

 31 32  0  0  1  0  0  0  0  0999 V2000
    6.1009  -17.3539   26.1110 N   0  0  0  0  0  0  0  0  0  0  0  0
    6.5042  -16.1005   25.5498 C   0  0  1  0  0  0  0  0  0  0  0  0
    7.4535  -15.3567   26.4637 C   0  0  0  0  0  0  0  0  0  0  0  0
    7.0056  -13.9807   26.7515 C   0  0  0  0  0  0  0  0  0  0  0  0
    7.8864  -13.0005   27.1542 C   0  0  0  0  0  0  0  0  0  0  0  0
    7.4750  -11.7145   27.4235 C   0  0  0  0  0  0  0  0  0  0  0  0
    6.1275  -11.4024   27.2825 C   0  0  0  0  0  0  0  0  0  0  0  0
    5.2084  -12.3594   26.8794 C   0  0  0  0  0  0  0  0  0  0  0  0
    5.6606  -13.6409   26.6181 C   0  0  0  0  0  0  0  0  0  0  0  0
    7.1207  -16.2975   24.2118 C   0  0  0  0  0  0  0  0  0  0  0  0
    7.7242  -17.3486   23.9082 O   0  0  0  0  0  0  0  0  0  0  0  0
    7.0136  -15.2458   23.2507 N   0  0  0  0  0  0  0  0  0  0  0  0
    7.7981  -15.2092   22.0458 C   0  0  1  0  0  0  0  0  0  0  0  0
    7.4643  -14.0219   21.1716 C   0  0  0  0  0  0  0  0  0  0  0  0
    8.2200  -14.0677   19.8832 C   0  0  0  0  0  0  0  0  0  0  0  0
    7.7235  -14.6133   18.7200 C   0  0  0  0  0  0  0  0  0  0  0  0
    8.6601  -14.4816   17.7796 N   0  0  0  0  0  0  0  0  0  0  0  0
    9.7350  -13.8665   18.3215 C   0  0  0  0  0  0  0  0  0  0  0  0
    9.4378  -13.6276   19.6002 N   0  0  0  0  0  0  0  0  0  0  0  0
    9.2430  -15.1907   22.3037 C   0  0  0  0  0  0  0  0  0  0  0  0
    9.6877  -14.4656   23.2242 O   0  0  0  0  0  0  0  0  0  0  0  0
   10.1198  -15.9810   21.5232 N   0  0  0  0  0  0  0  0  0  0  0  0
   11.5176  -16.1140   21.8955 C   0  0  1  0  0  0  0  0  0  0  0  0
   11.6264  -17.3033   22.8245 C   0  0  0  0  0  0  0  0  0  0  0  0
   13.0490  -17.6435   23.1353 C   0  0  0  0  0  0  0  0  0  0  0  0
   13.0238  -18.7854   24.1120 C   0  0  0  0  0  0  0  0  0  0  0  0
   13.6822  -18.6305   25.1640 O   0  0  0  0  0  0  0  0  0  0  0  0
   12.3455  -16.2623   20.6960 C   0  0  0  0  0  0  0  0  0  0  0  0
   11.8315  -16.6188   19.4476 O   0  0  0  0  0  0  0  0  0  0  0  0
   12.3174  -19.9431   23.8707 O   0  0  0  0  0  0  0  0  0  0  0  0
   13.5808  -16.0642   20.7713 O   0  0  0  0  0  0  0  0  0  0  0  0
  2  1  1  1
  2  3  1  0
  3  4  1  0
  4  5  2  0
  5  6  1  0
  7  6  2  0
  8  7  1  0
  9  8  2  0
  9  4  1  0
 10 11  2  0
 10  2  1  0
 12 10  1  0
 13 12  1  0
 13 14  1  1
 15 16  2  0
 15 14  1  0
 17 16  1  0
 18 19  2  0
 18 17  1  0
 19 15  1  0
 20 13  1  0
 20 22  1  0
 21 20  2  0
 23 22  1  0
 23 28  1  0
 23 24  1  1
 25 24  1  0
 26 27  2  0
 26 25  1  0
 28 29  1  0
 30 26  1  0
 31 28  2  0
M  END
$$$$
