FHE.pdb
     RDKit          3D

 31 32  0  0  1  0  0  0  0  0999 V2000
    6.7697  -16.3232   25.6101 N   0  0  0  0  0  0  0  0  0  0  0  0
    6.9102  -15.2043   24.7285 C   0  0  1  0  0  0  0  0  0  0  0  0
    7.8430  -14.1569   25.2966 C   0  0  0  0  0  0  0  0  0  0  0  0
    7.1846  -13.2869   26.2896 C   0  0  0  0  0  0  0  0  0  0  0  0
    7.5976  -13.2440   27.6036 C   0  0  0  0  0  0  0  0  0  0  0  0
    6.9879  -12.4336   28.5349 C   0  0  0  0  0  0  0  0  0  0  0  0
    5.9232  -11.6367   28.1299 C   0  0  0  0  0  0  0  0  0  0  0  0
    5.4765  -11.6501   26.8171 C   0  0  0  0  0  0  0  0  0  0  0  0
    6.1150  -12.4778   25.9105 C   0  0  0  0  0  0  0  0  0  0  0  0
    7.3805  -15.6456   23.3895 C   0  0  0  0  0  0  0  0  0  0  0  0
    7.7617  -16.8157   23.1732 O   0  0  0  0  0  0  0  0  0  0  0  0
    7.3927  -14.6941   22.3239 N   0  0  0  0  0  0  0  0  0  0  0  0
    7.9909  -14.9655   21.0444 C   0  0  1  0  0  0  0  0  0  0  0  0
    7.8979  -13.7895   20.0989 C   0  0  0  0  0  0  0  0  0  0  0  0
    8.3090  -14.1731   18.7144 C   0  0  0  0  0  0  0  0  0  0  0  0
    8.7682  -15.4246   18.3680 C   0  0  0  0  0  0  0  0  0  0  0  0
    9.0391  -15.4089   17.0622 N   0  0  0  0  0  0  0  0  0  0  0  0
    8.7620  -14.1781   16.5767 C   0  0  0  0  0  0  0  0  0  0  0  0
    8.3204  -13.4496   17.6038 N   0  0  0  0  0  0  0  0  0  0  0  0
    9.4020  -15.3574   21.1436 C   0  0  0  0  0  0  0  0  0  0  0  0
   10.2059  -14.5942   21.7285 O   0  0  0  0  0  0  0  0  0  0  0  0
    9.8464  -16.5798   20.5863 N   0  0  0  0  0  0  0  0  0  0  0  0
   11.2532  -16.9393   20.6305 C   0  0  1  0  0  0  0  0  0  0  0  0
   11.3640  -18.2359   21.4024 C   0  0  0  0  0  0  0  0  0  0  0  0
   11.0449  -18.0543   22.8521 C   0  0  0  0  0  0  0  0  0  0  0  0
   11.2218  -19.3932   23.5114 C   0  0  0  0  0  0  0  0  0  0  0  0
   11.8296  -19.3975   24.6044 O   0  0  0  0  0  0  0  0  0  0  0  0
   11.7870  -17.0494   19.2707 C   0  0  0  0  0  0  0  0  0  0  0  0
   13.1521  -17.1180   18.9850 O   0  0  0  0  0  0  0  0  0  0  0  0
   10.7443  -20.5572   22.9505 O   0  0  0  0  0  0  0  0  0  0  0  0
   10.9962  -17.0853   18.2991 O   0  0  0  0  0  0  0  0  0  0  0  0
  2  1  1  1
  2  3  1  0
  3  4  1  0
  4  5  2  0
  5  6  1  0
  7  6  2  0
  8  7  1  0
  9  8  2  0
  9  4  1  0
 10 11  2  0
 10  2  1  0
 12 10  1  0
 13 12  1  0
 13 14  1  6
 15 16  2  0
 15 14  1  0
 17 16  1  0
 18 19  2  0
 18 17  1  0
 19 15  1  0
 20 13  1  0
 20 22  1  0
 21 20  2  0
 23 22  1  0
 23 28  1  0
 23 24  1  6
 25 24  1  0
 26 27  2  0
 26 25  1  0
 28 29  1  0
 30 26  1  0
 31 28  2  0
M  END
$$$$
