FHE.pdb
     RDKit          3D

 31 32  0  0  1  0  0  0  0  0999 V2000
    5.6199  -16.4231   24.7770 N   0  0  0  0  0  0  0  0  0  0  0  0
    6.7033  -15.4946   24.6634 C   0  0  1  0  0  0  0  0  0  0  0  0
    7.2147  -15.0614   26.0200 C   0  0  0  0  0  0  0  0  0  0  0  0
    6.8714  -13.6621   26.3374 C   0  0  0  0  0  0  0  0  0  0  0  0
    5.8187  -13.3439   27.1678 C   0  0  0  0  0  0  0  0  0  0  0  0
    5.4938  -12.0402   27.4685 C   0  0  0  0  0  0  0  0  0  0  0  0
    6.2557  -11.0183   26.9135 C   0  0  0  0  0  0  0  0  0  0  0  0
    7.3234  -11.2955   26.0731 C   0  0  0  0  0  0  0  0  0  0  0  0
    7.6188  -12.6184   25.7947 C   0  0  0  0  0  0  0  0  0  0  0  0
    7.8076  -16.0717   23.8533 C   0  0  0  0  0  0  0  0  0  0  0  0
    8.1626  -17.2641   23.9703 O   0  0  0  0  0  0  0  0  0  0  0  0
    8.4771  -15.2280   22.9147 N   0  0  0  0  0  0  0  0  0  0  0  0
    9.6110  -15.6650   22.1453 C   0  0  1  0  0  0  0  0  0  0  0  0
   10.0222  -14.6589   21.0946 C   0  0  0  0  0  0  0  0  0  0  0  0
    9.0099  -14.5749   19.9986 C   0  0  0  0  0  0  0  0  0  0  0  0
    7.9013  -15.3878   19.9125 C   0  0  0  0  0  0  0  0  0  0  0  0
    7.2259  -15.0359   18.8176 N   0  0  0  0  0  0  0  0  0  0  0  0
    7.8816  -14.0212   18.2112 C   0  0  0  0  0  0  0  0  0  0  0  0
    8.9612  -13.7633   18.9518 N   0  0  0  0  0  0  0  0  0  0  0  0
   10.7856  -15.9610   22.9743 C   0  0  0  0  0  0  0  0  0  0  0  0
   11.2891  -15.0449   23.6657 O   0  0  0  0  0  0  0  0  0  0  0  0
   11.3402  -17.2628   22.9914 N   0  0  0  0  0  0  0  0  0  0  0  0
   12.3929  -17.6009   23.9336 C   0  0  1  0  0  0  0  0  0  0  0  0
   12.1808  -19.0399   24.3505 C   0  0  0  0  0  0  0  0  0  0  0  0
   13.2610  -19.5237   25.2645 C   0  0  0  0  0  0  0  0  0  0  0  0
   12.9581  -20.9617   25.5793 C   0  0  0  0  0  0  0  0  0  0  0  0
   12.0738  -21.1671   26.4395 O   0  0  0  0  0  0  0  0  0  0  0  0
   13.7054  -17.3829   23.3205 C   0  0  0  0  0  0  0  0  0  0  0  0
   14.8590  -17.1017   24.0555 O   0  0  0  0  0  0  0  0  0  0  0  0
   13.6130  -22.0031   24.9597 O   0  0  0  0  0  0  0  0  0  0  0  0
   13.8221  -17.4471   22.0743 O   0  0  0  0  0  0  0  0  0  0  0  0
  2  1  1  1
  2  3  1  0
  3  4  1  0
  4  5  2  0
  5  6  1  0
  7  6  2  0
  8  7  1  0
  9  8  2  0
  9  4  1  0
 10 11  2  0
 10  2  1  0
 12 10  1  0
 13 12  1  0
 13 14  1  6
 15 16  2  0
 15 14  1  0
 17 16  1  0
 18 19  2  0
 18 17  1  0
 19 15  1  0
 20 13  1  0
 20 22  1  0
 21 20  2  0
 23 22  1  0
 23 28  1  0
 23 24  1  6
 25 24  1  0
 26 27  2  0
 26 25  1  0
 28 29  1  0
 30 26  1  0
 31 28  2  0
M  END
$$$$
