FHE.pdb
     RDKit          3D

 31 32  0  0  1  0  0  0  0  0999 V2000
    5.7881  -16.1973   24.5278 N   0  0  0  0  0  0  0  0  0  0  0  0
    6.9203  -15.3338   24.3821 C   0  0  1  0  0  0  0  0  0  0  0  0
    7.4564  -14.8816   25.7229 C   0  0  0  0  0  0  0  0  0  0  0  0
    6.9524  -13.5526   26.1186 C   0  0  0  0  0  0  0  0  0  0  0  0
    7.6074  -12.3934   25.7635 C   0  0  0  0  0  0  0  0  0  0  0  0
    7.1419  -11.1501   26.1289 C   0  0  0  0  0  0  0  0  0  0  0  0
    5.9743  -11.0696   26.8793 C   0  0  0  0  0  0  0  0  0  0  0  0
    5.2849  -12.2119   27.2573 C   0  0  0  0  0  0  0  0  0  0  0  0
    5.7843  -13.4432   26.8708 C   0  0  0  0  0  0  0  0  0  0  0  0
    7.9904  -15.9982   23.5934 C   0  0  0  0  0  0  0  0  0  0  0  0
    8.2240  -17.2218   23.6919 O   0  0  0  0  0  0  0  0  0  0  0  0
    8.7701  -15.2038   22.6978 N   0  0  0  0  0  0  0  0  0  0  0  0
    9.8359  -15.7483   21.9003 C   0  0  1  0  0  0  0  0  0  0  0  0
   10.1593  -14.8894   20.6991 C   0  0  0  0  0  0  0  0  0  0  0  0
    8.9569  -14.6919   19.8341 C   0  0  0  0  0  0  0  0  0  0  0  0
    8.3544  -13.4714   19.6227 C   0  0  0  0  0  0  0  0  0  0  0  0
    7.3191  -13.6678   18.8051 N   0  0  0  0  0  0  0  0  0  0  0  0
    7.2539  -14.9821   18.4960 C   0  0  0  0  0  0  0  0  0  0  0  0
    8.2617  -15.5785   19.1359 N   0  0  0  0  0  0  0  0  0  0  0  0
   11.0750  -15.9494   22.6611 C   0  0  0  0  0  0  0  0  0  0  0  0
   11.8215  -14.9665   22.8794 O   0  0  0  0  0  0  0  0  0  0  0  0
   11.4201  -17.2353   23.1405 N   0  0  0  0  0  0  0  0  0  0  0  0
   12.3476  -17.3819   24.2489 C   0  0  1  0  0  0  0  0  0  0  0  0
   11.5463  -17.8279   25.4524 C   0  0  0  0  0  0  0  0  0  0  0  0
   11.7899  -19.2649   25.7868 C   0  0  0  0  0  0  0  0  0  0  0  0
   11.6331  -19.4018   27.2752 C   0  0  0  0  0  0  0  0  0  0  0  0
   11.8206  -20.5434   27.7503 O   0  0  0  0  0  0  0  0  0  0  0  0
   13.4056  -18.3321   23.8969 C   0  0  0  0  0  0  0  0  0  0  0  0
   13.3008  -19.2421   22.8429 O   0  0  0  0  0  0  0  0  0  0  0  0
   11.3013  -18.3344   28.0803 O   0  0  0  0  0  0  0  0  0  0  0  0
   14.4676  -18.3465   24.5623 O   0  0  0  0  0  0  0  0  0  0  0  0
  2  1  1  1
  2  3  1  0
  3  4  1  0
  4  5  2  0
  5  6  1  0
  7  6  2  0
  8  7  1  0
  9  8  2  0
  9  4  1  0
 10 11  2  0
 10  2  1  0
 12 10  1  0
 13 12  1  0
 13 14  1  6
 15 16  2  0
 15 14  1  0
 17 16  1  0
 18 19  2  0
 18 17  1  0
 19 15  1  0
 20 13  1  0
 20 22  1  0
 21 20  2  0
 23 22  1  0
 23 28  1  0
 23 24  1  1
 25 24  1  0
 26 27  2  0
 26 25  1  0
 28 29  1  0
 30 26  1  0
 31 28  2  0
M  END
$$$$
