FHE.pdb
     RDKit          3D

 31 32  0  0  1  0  0  0  0  0999 V2000
    5.9066  -16.9884   25.9055 N   0  0  0  0  0  0  0  0  0  0  0  0
    6.5850  -15.9100   25.2533 C   0  0  1  0  0  0  0  0  0  0  0  0
    7.5394  -15.2007   26.1891 C   0  0  0  0  0  0  0  0  0  0  0  0
    7.1683  -13.7916   26.4199 C   0  0  0  0  0  0  0  0  0  0  0  0
    7.5054  -12.7972   25.5274 C   0  0  0  0  0  0  0  0  0  0  0  0
    7.1614  -11.4805   25.7366 C   0  0  0  0  0  0  0  0  0  0  0  0
    6.4520  -11.1514   26.8860 C   0  0  0  0  0  0  0  0  0  0  0  0
    6.0932  -12.1218   27.8094 C   0  0  0  0  0  0  0  0  0  0  0  0
    6.4571  -13.4341   27.5638 C   0  0  0  0  0  0  0  0  0  0  0  0
    7.3059  -16.3948   24.0475 C   0  0  0  0  0  0  0  0  0  0  0  0
    7.9034  -17.4921   24.0287 O   0  0  0  0  0  0  0  0  0  0  0  0
    7.3093  -15.5727   22.8790 N   0  0  0  0  0  0  0  0  0  0  0  0
    8.0277  -15.9221   21.6830 C   0  0  1  0  0  0  0  0  0  0  0  0
    7.7805  -14.9496   20.5523 C   0  0  0  0  0  0  0  0  0  0  0  0
    8.3456  -15.4586   19.2660 C   0  0  0  0  0  0  0  0  0  0  0  0
    9.0303  -16.6475   19.1445 C   0  0  0  0  0  0  0  0  0  0  0  0
    9.3855  -16.7809   17.8659 N   0  0  0  0  0  0  0  0  0  0  0  0
    8.9415  -15.7051   17.1782 C   0  0  0  0  0  0  0  0  0  0  0  0
    8.3138  -14.9196   18.0554 N   0  0  0  0  0  0  0  0  0  0  0  0
    9.4775  -16.0152   21.8926 C   0  0  0  0  0  0  0  0  0  0  0  0
   10.0011  -15.3601   22.8240 O   0  0  0  0  0  0  0  0  0  0  0  0
   10.2710  -16.8335   21.0540 N   0  0  0  0  0  0  0  0  0  0  0  0
   11.6221  -17.1958   21.4457 C   0  0  1  0  0  0  0  0  0  0  0  0
   11.5166  -18.0698   22.6763 C   0  0  0  0  0  0  0  0  0  0  0  0
   11.4482  -17.2624   23.9332 C   0  0  0  0  0  0  0  0  0  0  0  0
   11.5283  -18.2294   25.0808 C   0  0  0  0  0  0  0  0  0  0  0  0
   11.7037  -19.4313   24.7826 O   0  0  0  0  0  0  0  0  0  0  0  0
   12.3037  -17.8687   20.3373 C   0  0  0  0  0  0  0  0  0  0  0  0
   13.6690  -17.7314   20.0787 O   0  0  0  0  0  0  0  0  0  0  0  0
   11.4157  -17.8239   26.3925 O   0  0  0  0  0  0  0  0  0  0  0  0
   11.6472  -18.6103   19.5691 O   0  0  0  0  0  0  0  0  0  0  0  0
  2  1  1  1
  2  3  1  0
  3  4  1  0
  4  5  2  0
  5  6  1  0
  7  6  2  0
  8  7  1  0
  9  8  2  0
  9  4  1  0
 10 11  2  0
 10  2  1  0
 12 10  1  0
 13 12  1  0
 13 14  1  6
 15 16  2  0
 15 14  1  0
 17 16  1  0
 18 19  2  0
 18 17  1  0
 19 15  1  0
 20 13  1  0
 20 22  1  0
 21 20  2  0
 23 22  1  0
 23 28  1  0
 23 24  1  1
 25 24  1  0
 26 27  2  0
 26 25  1  0
 28 29  1  0
 30 26  1  0
 31 28  2  0
M  END
$$$$
