FHE.pdb
     RDKit          3D

 31 32  0  0  1  0  0  0  0  0999 V2000
    5.4639  -17.1066   23.9559 N   0  0  0  0  0  0  0  0  0  0  0  0
    6.4296  -16.0815   24.2112 C   0  0  1  0  0  0  0  0  0  0  0  0
    6.5336  -15.7645   25.6871 C   0  0  0  0  0  0  0  0  0  0  0  0
    6.6476  -14.3176   25.9519 C   0  0  0  0  0  0  0  0  0  0  0  0
    6.9422  -13.4180   24.9505 C   0  0  0  0  0  0  0  0  0  0  0  0
    7.0492  -12.0665   25.1909 C   0  0  0  0  0  0  0  0  0  0  0  0
    6.8525  -11.6024   26.4866 C   0  0  0  0  0  0  0  0  0  0  0  0
    6.5542  -12.4742   27.5229 C   0  0  0  0  0  0  0  0  0  0  0  0
    6.4551  -13.8254   27.2415 C   0  0  0  0  0  0  0  0  0  0  0  0
    7.7591  -16.4645   23.6684 C   0  0  0  0  0  0  0  0  0  0  0  0
    8.2680  -17.5840   23.8897 O   0  0  0  0  0  0  0  0  0  0  0  0
    8.4684  -15.5155   22.8700 N   0  0  0  0  0  0  0  0  0  0  0  0
    9.7311  -15.8104   22.2477 C   0  0  1  0  0  0  0  0  0  0  0  0
   10.0921  -14.8163   21.1675 C   0  0  0  0  0  0  0  0  0  0  0  0
    8.9431  -14.5806   20.2415 C   0  0  0  0  0  0  0  0  0  0  0  0
    8.3195  -15.5756   19.5218 C   0  0  0  0  0  0  0  0  0  0  0  0
    7.3455  -15.0089   18.8083 N   0  0  0  0  0  0  0  0  0  0  0  0
    7.3399  -13.6809   19.0605 C   0  0  0  0  0  0  0  0  0  0  0  0
    8.3214  -13.4509   19.9346 N   0  0  0  0  0  0  0  0  0  0  0  0
   10.8425  -15.8637   23.2050 C   0  0  0  0  0  0  0  0  0  0  0  0
   11.3834  -14.7936   23.5699 O   0  0  0  0  0  0  0  0  0  0  0  0
   11.2955  -17.1065   23.7075 N   0  0  0  0  0  0  0  0  0  0  0  0
   12.4295  -17.1636   24.6137 C   0  0  1  0  0  0  0  0  0  0  0  0
   11.8940  -17.5084   25.9862 C   0  0  0  0  0  0  0  0  0  0  0  0
   11.1637  -18.8133   25.9914 C   0  0  0  0  0  0  0  0  0  0  0  0
   10.9542  -19.1931   27.4303 C   0  0  0  0  0  0  0  0  0  0  0  0
   11.9004  -19.7891   27.9904 O   0  0  0  0  0  0  0  0  0  0  0  0
   13.4089  -18.1412   24.1326 C   0  0  0  0  0  0  0  0  0  0  0  0
   14.6851  -18.2833   24.6813 O   0  0  0  0  0  0  0  0  0  0  0  0
    9.7876  -18.9051   28.1039 O   0  0  0  0  0  0  0  0  0  0  0  0
   13.1072  -18.8988   23.1808 O   0  0  0  0  0  0  0  0  0  0  0  0
  2  1  1  1
  2  3  1  0
  3  4  1  0
  4  5  2  0
  5  6  1  0
  7  6  2  0
  8  7  1  0
  9  8  2  0
  9  4  1  0
 10 11  2  0
 10  2  1  0
 12 10  1  0
 13 12  1  0
 13 14  1  6
 15 16  2  0
 15 14  1  0
 17 16  1  0
 18 19  2  0
 18 17  1  0
 19 15  1  0
 20 13  1  0
 20 22  1  0
 21 20  2  0
 23 22  1  0
 23 28  1  0
 23 24  1  1
 25 24  1  0
 26 27  2  0
 26 25  1  0
 28 29  1  0
 30 26  1  0
 31 28  2  0
M  END
$$$$
