FHE.pdb
     RDKit          3D

 31 32  0  0  1  0  0  0  0  0999 V2000
    5.9952  -18.1232   25.7449 N   0  0  0  0  0  0  0  0  0  0  0  0
    6.4613  -16.8035   25.4452 C   0  0  1  0  0  0  0  0  0  0  0  0
    6.8944  -16.0652   26.6930 C   0  0  0  0  0  0  0  0  0  0  0  0
    6.6526  -14.6124   26.6075 C   0  0  0  0  0  0  0  0  0  0  0  0
    5.8783  -14.0635   25.6084 C   0  0  0  0  0  0  0  0  0  0  0  0
    5.6482  -12.7086   25.5235 C   0  0  0  0  0  0  0  0  0  0  0  0
    6.2179  -11.8746   26.4789 C   0  0  0  0  0  0  0  0  0  0  0  0
    7.0034  -12.3866   27.5006 C   0  0  0  0  0  0  0  0  0  0  0  0
    7.2115  -13.7536   27.5522 C   0  0  0  0  0  0  0  0  0  0  0  0
    7.5718  -16.8496   24.4585 C   0  0  0  0  0  0  0  0  0  0  0  0
    8.4793  -17.7062   24.5213 O   0  0  0  0  0  0  0  0  0  0  0  0
    7.5923  -15.8795   23.4098 N   0  0  0  0  0  0  0  0  0  0  0  0
    8.6128  -15.8493   22.3968 C   0  0  1  0  0  0  0  0  0  0  0  0
    8.2423  -14.9681   21.2256 C   0  0  0  0  0  0  0  0  0  0  0  0
    9.2295  -15.1030   20.1119 C   0  0  0  0  0  0  0  0  0  0  0  0
   10.4965  -14.5635   20.1385 C   0  0  0  0  0  0  0  0  0  0  0  0
   11.0943  -14.8783   18.9885 N   0  0  0  0  0  0  0  0  0  0  0  0
   10.2352  -15.6029   18.2375 C   0  0  0  0  0  0  0  0  0  0  0  0
    9.1110  -15.7229   18.9463 N   0  0  0  0  0  0  0  0  0  0  0  0
    9.9139  -15.4014   22.9078 C   0  0  0  0  0  0  0  0  0  0  0  0
    9.9532  -14.4471   23.7193 O   0  0  0  0  0  0  0  0  0  0  0  0
   11.1056  -16.0393   22.4891 N   0  0  0  0  0  0  0  0  0  0  0  0
   12.3419  -15.8439   23.2264 C   0  0  1  0  0  0  0  0  0  0  0  0
   12.1359  -16.4137   24.6129 C   0  0  0  0  0  0  0  0  0  0  0  0
   11.9562  -17.8981   24.5878 C   0  0  0  0  0  0  0  0  0  0  0  0
   11.9499  -18.3635   26.0168 C   0  0  0  0  0  0  0  0  0  0  0  0
   13.0590  -18.3986   26.5938 O   0  0  0  0  0  0  0  0  0  0  0  0
   13.4554  -16.4807   22.5187 C   0  0  0  0  0  0  0  0  0  0  0  0
   14.7957  -16.2719   22.8503 O   0  0  0  0  0  0  0  0  0  0  0  0
   10.7916  -18.7332   26.6640 O   0  0  0  0  0  0  0  0  0  0  0  0
   13.2160  -17.2560   21.5636 O   0  0  0  0  0  0  0  0  0  0  0  0
  2  1  1  1
  2  3  1  0
  3  4  1  0
  4  5  2  0
  5  6  1  0
  7  6  2  0
  8  7  1  0
  9  8  2  0
  9  4  1  0
 10 11  2  0
 10  2  1  0
 12 10  1  0
 13 12  1  0
 13 14  1  6
 15 16  2  0
 15 14  1  0
 17 16  1  0
 18 19  2  0
 18 17  1  0
 19 15  1  0
 20 13  1  0
 20 22  1  0
 21 20  2  0
 23 22  1  0
 23 28  1  0
 23 24  1  1
 25 24  1  0
 26 27  2  0
 26 25  1  0
 28 29  1  0
 30 26  1  0
 31 28  2  0
M  END
$$$$
