FHE.pdb
     RDKit          3D

 31 32  0  0  1  0  0  0  0  0999 V2000
    5.3407  -17.6823   24.9957 N   0  0  0  0  0  0  0  0  0  0  0  0
    5.9181  -16.3736   25.0464 C   0  0  1  0  0  0  0  0  0  0  0  0
    6.2726  -15.9720   26.4616 C   0  0  0  0  0  0  0  0  0  0  0  0
    6.7370  -14.5749   26.5573 C   0  0  0  0  0  0  0  0  0  0  0  0
    5.8549  -13.5162   26.5639 C   0  0  0  0  0  0  0  0  0  0  0  0
    6.2818  -12.2103   26.6538 C   0  0  0  0  0  0  0  0  0  0  0  0
    7.6466  -11.9596   26.7403 C   0  0  0  0  0  0  0  0  0  0  0  0
    8.5675  -12.9964   26.7370 C   0  0  0  0  0  0  0  0  0  0  0  0
    8.0995  -14.2954   26.6453 C   0  0  0  0  0  0  0  0  0  0  0  0
    7.1152  -16.2927   24.1694 C   0  0  0  0  0  0  0  0  0  0  0  0
    7.9684  -17.2046   24.1263 O   0  0  0  0  0  0  0  0  0  0  0  0
    7.2856  -15.1317   23.3544 N   0  0  0  0  0  0  0  0  0  0  0  0
    8.4261  -14.9412   22.4991 C   0  0  1  0  0  0  0  0  0  0  0  0
    8.3353  -13.6708   21.6848 C   0  0  0  0  0  0  0  0  0  0  0  0
    8.1566  -13.9697   20.2316 C   0  0  0  0  0  0  0  0  0  0  0  0
    9.1511  -13.8262   19.2895 C   0  0  0  0  0  0  0  0  0  0  0  0
    8.6430  -14.1798   18.1081 N   0  0  0  0  0  0  0  0  0  0  0  0
    7.3525  -14.5427   18.2822 C   0  0  0  0  0  0  0  0  0  0  0  0
    7.0859  -14.4045   19.5824 N   0  0  0  0  0  0  0  0  0  0  0  0
    9.6961  -14.9188   23.2347 C   0  0  0  0  0  0  0  0  0  0  0  0
    9.8987  -14.0081   24.0716 O   0  0  0  0  0  0  0  0  0  0  0  0
   10.6764  -15.9122   23.0011 N   0  0  0  0  0  0  0  0  0  0  0  0
   11.9664  -15.8423   23.6653 C   0  0  1  0  0  0  0  0  0  0  0  0
   12.1472  -17.1307   24.4378 C   0  0  0  0  0  0  0  0  0  0  0  0
   11.0492  -17.3483   25.4295 C   0  0  0  0  0  0  0  0  0  0  0  0
   11.3716  -18.6158   26.1699 C   0  0  0  0  0  0  0  0  0  0  0  0
   10.5273  -18.9981   27.0096 O   0  0  0  0  0  0  0  0  0  0  0  0
   13.0285  -15.6264   22.6796 C   0  0  0  0  0  0  0  0  0  0  0  0
   14.3381  -15.2857   23.0241 O   0  0  0  0  0  0  0  0  0  0  0  0
   12.5309  -19.3245   25.9432 O   0  0  0  0  0  0  0  0  0  0  0  0
   12.7708  -15.7482   21.4591 O   0  0  0  0  0  0  0  0  0  0  0  0
  2  1  1  1
  2  3  1  0
  3  4  1  0
  4  5  2  0
  5  6  1  0
  7  6  2  0
  8  7  1  0
  9  8  2  0
  9  4  1  0
 10 11  2  0
 10  2  1  0
 12 10  1  0
 13 12  1  0
 13 14  1  1
 15 16  2  0
 15 14  1  0
 17 16  1  0
 18 19  2  0
 18 17  1  0
 19 15  1  0
 20 13  1  0
 20 22  1  0
 21 20  2  0
 23 22  1  0
 23 28  1  0
 23 24  1  6
 25 24  1  0
 26 27  2  0
 26 25  1  0
 28 29  1  0
 30 26  1  0
 31 28  2  0
M  END
$$$$
