FHE.pdb
     RDKit          3D

 31 32  0  0  1  0  0  0  0  0999 V2000
    6.7217  -16.4272   25.9417 N   0  0  0  0  0  0  0  0  0  0  0  0
    6.4939  -16.2568   24.5389 C   0  0  1  0  0  0  0  0  0  0  0  0
    5.8669  -14.9143   24.2320 C   0  0  0  0  0  0  0  0  0  0  0  0
    6.3605  -13.8403   25.1149 C   0  0  0  0  0  0  0  0  0  0  0  0
    7.0192  -12.7372   24.6168 C   0  0  0  0  0  0  0  0  0  0  0  0
    7.4816  -11.7312   25.4353 C   0  0  0  0  0  0  0  0  0  0  0  0
    7.2739  -11.8385   26.8057 C   0  0  0  0  0  0  0  0  0  0  0  0
    6.6155  -12.9321   27.3476 C   0  0  0  0  0  0  0  0  0  0  0  0
    6.1655  -13.9225   26.4924 C   0  0  0  0  0  0  0  0  0  0  0  0
    7.7587  -16.4244   23.7766 C   0  0  0  0  0  0  0  0  0  0  0  0
    8.3239  -17.5333   23.6656 O   0  0  0  0  0  0  0  0  0  0  0  0
    8.3374  -15.2753   23.1555 N   0  0  0  0  0  0  0  0  0  0  0  0
    9.5588  -15.3316   22.3981 C   0  0  1  0  0  0  0  0  0  0  0  0
    9.7342  -14.1360   21.4897 C   0  0  0  0  0  0  0  0  0  0  0  0
    8.9219  -14.2779   20.2435 C   0  0  0  0  0  0  0  0  0  0  0  0
    8.1780  -15.3950   19.9341 C   0  0  0  0  0  0  0  0  0  0  0  0
    7.5884  -15.1753   18.7582 N   0  0  0  0  0  0  0  0  0  0  0  0
    7.9424  -13.9471   18.3184 C   0  0  0  0  0  0  0  0  0  0  0  0
    8.7529  -13.4264   19.2418 N   0  0  0  0  0  0  0  0  0  0  0  0
   10.7532  -15.4373   23.2446 C   0  0  0  0  0  0  0  0  0  0  0  0
   10.7261  -14.9500   24.3991 O   0  0  0  0  0  0  0  0  0  0  0  0
   11.9177  -16.0807   22.7626 N   0  0  0  0  0  0  0  0  0  0  0  0
   12.8874  -16.6372   23.6902 C   0  0  1  0  0  0  0  0  0  0  0  0
   12.1816  -17.7081   24.4929 C   0  0  0  0  0  0  0  0  0  0  0  0
   13.1341  -18.4996   25.3310 C   0  0  0  0  0  0  0  0  0  0  0  0
   12.3154  -19.4941   26.1053 C   0  0  0  0  0  0  0  0  0  0  0  0
   12.2921  -19.3468   27.3470 O   0  0  0  0  0  0  0  0  0  0  0  0
   14.0438  -17.1575   22.9567 C   0  0  0  0  0  0  0  0  0  0  0  0
   13.9361  -17.8872   21.7710 O   0  0  0  0  0  0  0  0  0  0  0  0
   11.6252  -20.5151   25.4900 O   0  0  0  0  0  0  0  0  0  0  0  0
   15.1983  -16.9489   23.3977 O   0  0  0  0  0  0  0  0  0  0  0  0
  2  1  1  1
  2  3  1  0
  3  4  1  0
  4  5  2  0
  5  6  1  0
  7  6  2  0
  8  7  1  0
  9  8  2  0
  9  4  1  0
 10 11  2  0
 10  2  1  0
 12 10  1  0
 13 12  1  0
 13 14  1  1
 15 16  2  0
 15 14  1  0
 17 16  1  0
 18 19  2  0
 18 17  1  0
 19 15  1  0
 20 13  1  0
 20 22  1  0
 21 20  2  0
 23 22  1  0
 23 28  1  0
 23 24  1  6
 25 24  1  0
 26 27  2  0
 26 25  1  0
 28 29  1  0
 30 26  1  0
 31 28  2  0
M  END
$$$$
