FHE.pdb
     RDKit          3D

 31 32  0  0  1  0  0  0  0  0999 V2000
    6.6893  -18.1139   26.1524 N   0  0  0  0  0  0  0  0  0  0  0  0
    6.6953  -16.7254   25.8048 C   0  0  1  0  0  0  0  0  0  0  0  0
    7.2220  -15.8672   26.9343 C   0  0  0  0  0  0  0  0  0  0  0  0
    7.0409  -14.4244   26.6849 C   0  0  0  0  0  0  0  0  0  0  0  0
    8.0678  -13.6353   26.2141 C   0  0  0  0  0  0  0  0  0  0  0  0
    7.9051  -12.2885   25.9787 C   0  0  0  0  0  0  0  0  0  0  0  0
    6.6636  -11.7138   26.2258 C   0  0  0  0  0  0  0  0  0  0  0  0
    5.6040  -12.4725   26.6998 C   0  0  0  0  0  0  0  0  0  0  0  0
    5.8068  -13.8229   26.9241 C   0  0  0  0  0  0  0  0  0  0  0  0
    7.4863  -16.4964   24.5676 C   0  0  0  0  0  0  0  0  0  0  0  0
    8.5557  -17.1023   24.3428 O   0  0  0  0  0  0  0  0  0  0  0  0
    6.9994  -15.5521   23.6124 N   0  0  0  0  0  0  0  0  0  0  0  0
    7.6109  -15.3610   22.3248 C   0  0  1  0  0  0  0  0  0  0  0  0
    6.9489  -14.2621   21.5250 C   0  0  0  0  0  0  0  0  0  0  0  0
    7.6073  -14.0875   20.1949 C   0  0  0  0  0  0  0  0  0  0  0  0
    8.7326  -14.7755   19.7983 C   0  0  0  0  0  0  0  0  0  0  0  0
    9.0394  -14.3721   18.5646 N   0  0  0  0  0  0  0  0  0  0  0  0
    8.1352  -13.4464   18.1738 C   0  0  0  0  0  0  0  0  0  0  0  0
    7.2779  -13.2947   19.1851 N   0  0  0  0  0  0  0  0  0  0  0  0
    9.0447  -15.0585   22.4111 C   0  0  0  0  0  0  0  0  0  0  0  0
    9.4114  -14.0078   22.9877 O   0  0  0  0  0  0  0  0  0  0  0  0
    9.9977  -15.9418   21.8509 N   0  0  0  0  0  0  0  0  0  0  0  0
   11.4178  -15.6560   21.9596 C   0  0  1  0  0  0  0  0  0  0  0  0
   11.8781  -16.1606   23.3097 C   0  0  0  0  0  0  0  0  0  0  0  0
   11.7605  -17.6471   23.4224 C   0  0  0  0  0  0  0  0  0  0  0  0
   12.3968  -18.0401   24.7260 C   0  0  0  0  0  0  0  0  0  0  0  0
   12.9757  -17.1292   25.3577 O   0  0  0  0  0  0  0  0  0  0  0  0
   12.1429  -16.2813   20.8508 C   0  0  0  0  0  0  0  0  0  0  0  0
   13.4917  -16.0395   20.5821 O   0  0  0  0  0  0  0  0  0  0  0  0
   12.3503  -19.3301   25.2068 O   0  0  0  0  0  0  0  0  0  0  0  0
   11.5416  -17.0771   20.0919 O   0  0  0  0  0  0  0  0  0  0  0  0
  2  1  1  1
  2  3  1  0
  3  4  1  0
  4  5  2  0
  5  6  1  0
  7  6  2  0
  8  7  1  0
  9  8  2  0
  9  4  1  0
 10 11  2  0
 10  2  1  0
 12 10  1  0
 13 12  1  0
 13 14  1  1
 15 16  2  0
 15 14  1  0
 17 16  1  0
 18 19  2  0
 18 17  1  0
 19 15  1  0
 20 13  1  0
 20 22  1  0
 21 20  2  0
 23 22  1  0
 23 28  1  0
 23 24  1  1
 25 24  1  0
 26 27  2  0
 26 25  1  0
 28 29  1  0
 30 26  1  0
 31 28  2  0
M  END
$$$$
