FHE.pdb
     RDKit          3D

 31 32  0  0  1  0  0  0  0  0999 V2000
    6.0645  -17.6609   23.5546 N   0  0  0  0  0  0  0  0  0  0  0  0
    6.8111  -16.6030   24.1646 C   0  0  1  0  0  0  0  0  0  0  0  0
    6.2361  -16.2144   25.5093 C   0  0  0  0  0  0  0  0  0  0  0  0
    6.8121  -14.9616   26.0340 C   0  0  0  0  0  0  0  0  0  0  0  0
    7.5552  -14.9352   27.1943 C   0  0  0  0  0  0  0  0  0  0  0  0
    8.0961  -13.7696   27.6889 C   0  0  0  0  0  0  0  0  0  0  0  0
    7.8819  -12.5866   26.9908 C   0  0  0  0  0  0  0  0  0  0  0  0
    7.1401  -12.5698   25.8192 C   0  0  0  0  0  0  0  0  0  0  0  0
    6.6129  -13.7616   25.3540 C   0  0  0  0  0  0  0  0  0  0  0  0
    8.2419  -16.9808   24.3024 C   0  0  0  0  0  0  0  0  0  0  0  0
    8.5943  -18.1315   24.6385 O   0  0  0  0  0  0  0  0  0  0  0  0
    9.2367  -15.9895   24.0400 N   0  0  0  0  0  0  0  0  0  0  0  0
   10.6438  -16.2863   24.0137 C   0  0  1  0  0  0  0  0  0  0  0  0
   11.3813  -15.5081   22.9479 C   0  0  0  0  0  0  0  0  0  0  0  0
   11.0112  -15.9790   21.5788 C   0  0  0  0  0  0  0  0  0  0  0  0
   10.1090  -16.9900   21.3316 C   0  0  0  0  0  0  0  0  0  0  0  0
   10.0242  -17.1420   20.0093 N   0  0  0  0  0  0  0  0  0  0  0  0
   10.8510  -16.2517   19.4167 C   0  0  0  0  0  0  0  0  0  0  0  0
   11.4368  -15.5595   20.3956 N   0  0  0  0  0  0  0  0  0  0  0  0
   11.3061  -16.0347   25.2992 C   0  0  0  0  0  0  0  0  0  0  0  0
   12.5297  -16.2817   25.4121 O   0  0  0  0  0  0  0  0  0  0  0  0
   10.5720  -15.5204   26.3942 N   0  0  0  0  0  0  0  0  0  0  0  0
   10.8953  -15.9260   27.7512 C   0  0  1  0  0  0  0  0  0  0  0  0
    9.9639  -17.0608   28.1174 C   0  0  0  0  0  0  0  0  0  0  0  0
   10.7113  -18.2984   28.4990 C   0  0  0  0  0  0  0  0  0  0  0  0
    9.6867  -19.3650   28.7663 C   0  0  0  0  0  0  0  0  0  0  0  0
    9.5124  -20.2070   27.8582 O   0  0  0  0  0  0  0  0  0  0  0  0
   12.3066  -16.3090   27.8388 C   0  0  0  0  0  0  0  0  0  0  0  0
   13.0796  -16.1341   28.9885 O   0  0  0  0  0  0  0  0  0  0  0  0
    8.9738  -19.4203   29.9436 O   0  0  0  0  0  0  0  0  0  0  0  0
   12.8692  -16.8214   26.8430 O   0  0  0  0  0  0  0  0  0  0  0  0
  2  1  1  1
  2  3  1  0
  3  4  1  0
  4  5  2  0
  5  6  1  0
  7  6  2  0
  8  7  1  0
  9  8  2  0
  9  4  1  0
 10 11  2  0
 10  2  1  0
 12 10  1  0
 13 12  1  0
 13 14  1  6
 15 16  2  0
 15 14  1  0
 17 16  1  0
 18 19  2  0
 18 17  1  0
 19 15  1  0
 20 13  1  0
 20 22  1  0
 21 20  2  0
 23 22  1  0
 23 28  1  0
 23 24  1  6
 25 24  1  0
 26 27  2  0
 26 25  1  0
 28 29  1  0
 30 26  1  0
 31 28  2  0
M  END
$$$$
