SCL.pdb
     RDKit          3D

 21 20  0  0  1  0  0  0  0  0999 V2000
   12.9837  -12.9511    3.4126 O   0  0  0  0  0  0  0  0  0  0  0  0
   14.1718  -13.6195    3.5772 C   0  0  0  0  0  0  0  0  0  0  0  0
   14.8236  -13.2082    4.8784 C   0  0  2  0  0  0  0  0  0  0  0  0
   15.2254  -11.8229    4.7182 N   0  0  0  0  0  0  0  0  0  0  0  0
   16.0371  -14.0051    5.1653 C   0  0  0  0  0  0  0  0  0  0  0  0
   17.1891  -13.5086    5.0576 O   0  0  0  0  0  0  0  0  0  0  0  0
   15.9881  -15.3707    5.5778 N   0  0  0  0  0  0  0  0  0  0  0  0
   17.1869  -16.1405    5.8833 C   0  0  1  0  0  0  0  0  0  0  0  0
   16.9813  -16.8090    7.2275 C   0  0  0  0  0  0  0  0  0  0  0  0
   18.4375  -17.7523    7.7405 S   0  0  0  0  0  0  0  0  0  0  0  0
   17.3657  -17.2504    4.8918 C   0  0  0  0  0  0  0  0  0  0  0  0
   16.3609  -17.9043    4.5158 O   0  0  0  0  0  0  0  0  0  0  0  0
   21.6011  -17.0006    1.3468 C   0  0  0  0  0  0  0  0  0  0  0  0
   20.2225  -17.2143    1.9480 C   0  0  1  0  0  0  0  0  0  0  0  0
   19.1601  -17.2381    0.8698 C   0  0  0  0  0  0  0  0  0  0  0  0
   20.1775  -18.5249    2.6897 C   0  0  0  0  0  0  0  0  0  0  0  0
   18.8650  -18.6470    3.3894 C   0  0  2  0  0  0  0  0  0  0  0  0
   18.6242  -17.5961    4.3575 N   0  0  0  0  0  0  0  0  0  0  0  0
   18.7853  -19.9478    4.1468 C   0  0  0  0  0  0  0  0  0  0  0  0
   18.5937  -21.0102    3.5095 O   0  0  0  0  0  0  0  0  0  0  0  0
   18.9183  -19.9817    5.5067 O   0  0  0  0  0  0  0  0  0  0  0  0
  2  1  1  0
  3  2  1  0
  3  4  1  6
  5  3  1  0
  5  6  2  0
  7  5  1  0
  8  7  1  0
  9 10  1  0
  8  9  1  1
 11 12  2  0
 11  8  1  0
 14 13  1  6
 14 15  1  0
 16 14  1  0
 17 18  1  0
 17 16  1  1
 18 11  1  0
 19 17  1  0
 20 19  2  0
 21 19  1  0
M  END
$$$$
