SCL.pdb
     RDKit          3D

 21 20  0  0  1  0  0  0  0  0999 V2000
   14.6968  -12.1137  -13.6913 O   0  0  0  0  0  0  0  0  0  0  0  0
   15.0471  -11.8115  -14.9842 C   0  0  0  0  0  0  0  0  0  0  0  0
   16.5524  -11.7400  -15.1116 C   0  0  2  0  0  0  0  0  0  0  0  0
   17.0560  -13.0639  -14.7953 N   0  0  0  0  0  0  0  0  0  0  0  0
   17.1442  -10.7845  -14.1491 C   0  0  0  0  0  0  0  0  0  0  0  0
   17.5608  -11.1611  -13.0222 O   0  0  0  0  0  0  0  0  0  0  0  0
   17.2825   -9.3910  -14.4256 N   0  0  0  0  0  0  0  0  0  0  0  0
   17.8062   -8.4462  -13.4478 C   0  0  1  0  0  0  0  0  0  0  0  0
   18.4833   -7.3209  -14.2035 C   0  0  0  0  0  0  0  0  0  0  0  0
   19.1538   -6.0664  -13.0855 S   0  0  0  0  0  0  0  0  0  0  0  0
   16.6872   -7.8129  -12.6772 C   0  0  0  0  0  0  0  0  0  0  0  0
   15.6751   -7.3981  -13.2953 O   0  0  0  0  0  0  0  0  0  0  0  0
   13.3316   -7.3961   -8.6445 C   0  0  0  0  0  0  0  0  0  0  0  0
   14.6489   -6.7364   -8.2743 C   0  0  1  0  0  0  0  0  0  0  0  0
   14.9149   -6.8559   -6.7888 C   0  0  0  0  0  0  0  0  0  0  0  0
   15.7844   -7.3930   -9.0155 C   0  0  0  0  0  0  0  0  0  0  0  0
   15.6690   -7.0758  -10.4691 C   0  0  2  0  0  0  0  0  0  0  0  0
   16.7211   -7.6610  -11.2755 N   0  0  0  0  0  0  0  0  0  0  0  0
   15.7392   -5.5872  -10.6956 C   0  0  0  0  0  0  0  0  0  0  0  0
   14.6923   -4.9066  -10.5849 O   0  0  0  0  0  0  0  0  0  0  0  0
   16.9194   -4.9774  -11.0170 O   0  0  0  0  0  0  0  0  0  0  0  0
  2  1  1  0
  3  2  1  0
  3  4  1  1
  5  3  1  0
  5  6  2  0
  7  5  1  0
  8  7  1  0
  9 10  1  0
  8  9  1  6
 11 12  2  0
 11  8  1  0
 14 13  1  1
 14 15  1  0
 16 14  1  0
 17 18  1  0
 17 16  1  1
 18 11  1  0
 19 17  1  0
 20 19  2  0
 21 19  1  0
M  END
$$$$
