SCL.pdb
     RDKit          3D

 21 20  0  0  1  0  0  0  0  0999 V2000
   14.6885  -11.4783  -16.1648 O   0  0  0  0  0  0  0  0  0  0  0  0
   14.9915  -11.1594  -14.8640 C   0  0  0  0  0  0  0  0  0  0  0  0
   16.4831  -10.9620  -14.7111 C   0  0  2  0  0  0  0  0  0  0  0  0
   17.0785  -12.2854  -14.7360 N   0  0  0  0  0  0  0  0  0  0  0  0
   16.8279  -10.3306  -13.4180 C   0  0  0  0  0  0  0  0  0  0  0  0
   16.4935  -10.8532  -12.3224 O   0  0  0  0  0  0  0  0  0  0  0  0
   17.5522   -9.1043  -13.3228 N   0  0  0  0  0  0  0  0  0  0  0  0
   18.0038   -8.5578  -12.0499 C   0  0  1  0  0  0  0  0  0  0  0  0
   19.1637   -7.6237  -12.3292 C   0  0  0  0  0  0  0  0  0  0  0  0
   20.6760   -8.5301  -12.7352 S   0  0  0  0  0  0  0  0  0  0  0  0
   16.9315   -7.7128  -11.4306 C   0  0  0  0  0  0  0  0  0  0  0  0
   16.3744   -6.8249  -12.1232 O   0  0  0  0  0  0  0  0  0  0  0  0
   12.6133   -6.6186   -9.1055 C   0  0  0  0  0  0  0  0  0  0  0  0
   13.5303   -7.0327   -7.9675 C   0  0  1  0  0  0  0  0  0  0  0  0
   12.7706   -7.8169   -6.9188 C   0  0  0  0  0  0  0  0  0  0  0  0
   14.6486   -7.8963   -8.4904 C   0  0  0  0  0  0  0  0  0  0  0  0
   15.4829   -7.0981   -9.4359 C   0  0  2  0  0  0  0  0  0  0  0  0
   16.5169   -7.8725  -10.0922 N   0  0  0  0  0  0  0  0  0  0  0  0
   16.1866   -5.9800   -8.7102 C   0  0  0  0  0  0  0  0  0  0  0  0
   17.2652   -6.2241   -8.1197 O   0  0  0  0  0  0  0  0  0  0  0  0
   15.6673   -4.7159   -8.6888 O   0  0  0  0  0  0  0  0  0  0  0  0
  2  1  1  0
  3  2  1  0
  3  4  1  1
  5  3  1  0
  5  6  2  0
  7  5  1  0
  8  7  1  0
  9 10  1  0
  8  9  1  6
 11 12  2  0
 11  8  1  0
 14 13  1  6
 14 15  1  0
 16 14  1  0
 17 18  1  0
 17 16  1  1
 18 11  1  0
 19 17  1  0
 20 19  2  0
 21 19  1  0
M  END
$$$$
