SCL.pdb
     RDKit          3D

 21 20  0  0  1  0  0  0  0  0999 V2000
   16.2297  -11.2837  -16.9286 O   0  0  0  0  0  0  0  0  0  0  0  0
   16.4649  -10.8014  -15.6647 C   0  0  0  0  0  0  0  0  0  0  0  0
   17.9488  -10.6005  -15.4529 C   0  0  2  0  0  0  0  0  0  0  0  0
   18.5464  -11.9230  -15.4429 N   0  0  0  0  0  0  0  0  0  0  0  0
   18.2399   -9.9583  -14.1519 C   0  0  0  0  0  0  0  0  0  0  0  0
   18.1591  -10.5988  -13.0709 O   0  0  0  0  0  0  0  0  0  0  0  0
   18.6268   -8.5895  -14.0323 N   0  0  0  0  0  0  0  0  0  0  0  0
   18.8553   -7.9495  -12.7434 C   0  0  1  0  0  0  0  0  0  0  0  0
   19.7850   -6.7738  -12.9655 C   0  0  0  0  0  0  0  0  0  0  0  0
   21.4978   -7.3052  -13.2049 S   0  0  0  0  0  0  0  0  0  0  0  0
   17.5789   -7.3730  -12.2092 C   0  0  0  0  0  0  0  0  0  0  0  0
   16.7723   -6.8287  -13.0039 O   0  0  0  0  0  0  0  0  0  0  0  0
   13.3541   -7.3894   -8.9642 C   0  0  0  0  0  0  0  0  0  0  0  0
   14.5430   -6.6984   -8.3189 C   0  0  1  0  0  0  0  0  0  0  0  0
   14.5070   -6.8536   -6.8134 C   0  0  0  0  0  0  0  0  0  0  0  0
   15.8292   -7.2952   -8.8282 C   0  0  0  0  0  0  0  0  0  0  0  0
   15.9953   -6.9442  -10.2692 C   0  0  2  0  0  0  0  0  0  0  0  0
   17.2407   -7.4151  -10.8408 N   0  0  0  0  0  0  0  0  0  0  0  0
   15.9810   -5.4487  -10.4570 C   0  0  0  0  0  0  0  0  0  0  0  0
   14.9015   -4.8847  -10.7537 O   0  0  0  0  0  0  0  0  0  0  0  0
   17.1203   -4.7082  -10.3091 O   0  0  0  0  0  0  0  0  0  0  0  0
  2  1  1  0
  3  2  1  0
  3  4  1  1
  5  3  1  0
  5  6  2  0
  7  5  1  0
  8  7  1  0
  9 10  1  0
  8  9  1  6
 11 12  2  0
 11  8  1  0
 14 13  1  6
 14 15  1  0
 16 14  1  0
 17 18  1  0
 17 16  1  1
 18 11  1  0
 19 17  1  0
 20 19  2  0
 21 19  1  0
M  END
$$$$
