SCL.pdb
     RDKit          3D

 21 20  0  0  1  0  0  0  0  0999 V2000
   24.3339  -17.9688  -16.3112 O   0  0  0  0  0  0  0  0  0  0  0  0
   25.4264  -17.8845  -17.1388 C   0  0  0  0  0  0  0  0  0  0  0  0
   25.8651  -19.2683  -17.5628 C   0  0  2  0  0  0  0  0  0  0  0  0
   24.8260  -19.7802  -18.4373 N   0  0  0  0  0  0  0  0  0  0  0  0
   25.9853  -20.1880  -16.4098 C   0  0  0  0  0  0  0  0  0  0  0  0
   25.1816  -21.1431  -16.2453 O   0  0  0  0  0  0  0  0  0  0  0  0
   27.0045  -20.0596  -15.4187 N   0  0  0  0  0  0  0  0  0  0  0  0
   27.1124  -20.9667  -14.2836 C   0  0  1  0  0  0  0  0  0  0  0  0
   28.5253  -20.8720  -13.7443 C   0  0  0  0  0  0  0  0  0  0  0  0
   28.7722  -19.3735  -12.7610 S   0  0  0  0  0  0  0  0  0  0  0  0
   26.2133  -20.5234  -13.1691 C   0  0  0  0  0  0  0  0  0  0  0  0
   25.9353  -19.3035  -13.0541 O   0  0  0  0  0  0  0  0  0  0  0  0
   27.1824  -21.6267   -9.4334 C   0  0  0  0  0  0  0  0  0  0  0  0
   26.0583  -20.6956   -9.0126 C   0  0  1  0  0  0  0  0  0  0  0  0
   26.5671  -19.6243   -8.0717 C   0  0  0  0  0  0  0  0  0  0  0  0
   25.4618  -20.0231  -10.2217 C   0  0  0  0  0  0  0  0  0  0  0  0
   24.8389  -21.0566  -11.0997 C   0  0  2  0  0  0  0  0  0  0  0  0
   25.6605  -21.4241  -12.2353 N   0  0  0  0  0  0  0  0  0  0  0  0
   23.5335  -20.5577  -11.6645 C   0  0  0  0  0  0  0  0  0  0  0  0
   23.5061  -19.4417  -12.2347 O   0  0  0  0  0  0  0  0  0  0  0  0
   22.3909  -21.3009  -11.5629 O   0  0  0  0  0  0  0  0  0  0  0  0
  2  1  1  0
  3  2  1  0
  3  4  1  6
  5  3  1  0
  5  6  2  0
  7  5  1  0
  8  7  1  0
  9 10  1  0
  8  9  1  1
 11 12  2  0
 11  8  1  0
 14 13  1  6
 14 15  1  0
 16 14  1  0
 17 18  1  0
 17 16  1  6
 18 11  1  0
 19 17  1  0
 20 19  2  0
 21 19  1  0
M  END
$$$$
