SCL.pdb
     RDKit          3D

 21 20  0  0  1  0  0  0  0  0999 V2000
   17.6168  -12.3213  -17.2555 O   0  0  0  0  0  0  0  0  0  0  0  0
   18.4451  -11.3676  -16.7169 C   0  0  0  0  0  0  0  0  0  0  0  0
   19.6683  -11.1896  -17.5883 C   0  0  2  0  0  0  0  0  0  0  0  0
   20.4252  -12.4242  -17.4930 N   0  0  0  0  0  0  0  0  0  0  0  0
   20.5318  -10.0868  -17.1108 C   0  0  0  0  0  0  0  0  0  0  0  0
   21.0912  -10.1319  -15.9838 O   0  0  0  0  0  0  0  0  0  0  0  0
   20.7875   -8.9130  -17.8818 N   0  0  0  0  0  0  0  0  0  0  0  0
   21.7016   -7.8684  -17.4390 C   0  0  1  0  0  0  0  0  0  0  0  0
   22.1894   -7.1253  -18.6662 C   0  0  0  0  0  0  0  0  0  0  0  0
   23.2373   -8.1658  -19.7116 S   0  0  0  0  0  0  0  0  0  0  0  0
   20.9779   -6.8565  -16.6027 C   0  0  0  0  0  0  0  0  0  0  0  0
   19.8812   -6.3973  -17.0087 O   0  0  0  0  0  0  0  0  0  0  0  0
   21.1122   -7.2014  -11.4361 C   0  0  0  0  0  0  0  0  0  0  0  0
   20.7892   -7.3654  -12.9113 C   0  0  1  0  0  0  0  0  0  0  0  0
   19.9633   -8.6117  -13.1488 C   0  0  0  0  0  0  0  0  0  0  0  0
   20.0088   -6.1757  -13.4068 C   0  0  0  0  0  0  0  0  0  0  0  0
   20.7929   -5.4847  -14.4721 C   0  0  2  0  0  0  0  0  0  0  0  0
   21.4789   -6.3932  -15.3686 N   0  0  0  0  0  0  0  0  0  0  0  0
   21.8557   -4.6055  -13.8643 C   0  0  0  0  0  0  0  0  0  0  0  0
   23.0604   -4.9183  -14.0135 O   0  0  0  0  0  0  0  0  0  0  0  0
   21.5240   -3.4824  -13.1594 O   0  0  0  0  0  0  0  0  0  0  0  0
  2  1  1  0
  3  2  1  0
  3  4  1  1
  5  3  1  0
  5  6  2  0
  7  5  1  0
  8  7  1  0
  9 10  1  0
  8  9  1  6
 11 12  2  0
 11  8  1  0
 14 13  1  1
 14 15  1  0
 16 14  1  0
 17 18  1  0
 17 16  1  1
 18 11  1  0
 19 17  1  0
 20 19  2  0
 21 19  1  0
M  END
$$$$
