SRM.pdb
     RDKit          3D

 26 25  0  0  1  0  0  0  0  0999 V2000
   16.5470  -21.8439    5.4122 O   0  0  0  0  0  0  0  0  0  0  0  0
   16.6517  -21.7131    4.0175 C   0  0  0  0  0  0  0  0  0  0  0  0
   16.0022  -20.4263    3.5535 C   0  0  2  0  0  0  0  0  0  0  0  0
   16.0802  -20.4534    2.0865 N   0  0  0  0  0  0  0  0  0  0  0  0
   16.7462  -19.2763    4.1031 C   0  0  0  0  0  0  0  0  0  0  0  0
   17.7083  -18.8105    3.4464 O   0  0  0  0  0  0  0  0  0  0  0  0
   17.4823  -12.0714    3.8437 N   0  0  0  0  0  0  0  0  0  0  0  0
   18.2833  -12.3032    4.9936 C   0  0  0  0  0  0  0  0  0  0  0  0
   19.3830  -11.6491    5.1033 N   0  0  0  0  0  0  0  0  0  0  0  0
   17.9032  -13.2249    6.0074 N   0  0  0  0  0  0  0  0  0  0  0  0
   17.1875  -14.4362    5.7238 C   0  0  0  0  0  0  0  0  0  0  0  0
   16.8720  -15.2485    6.9365 C   0  0  0  0  0  0  0  0  0  0  0  0
   16.2114  -16.5381    6.5069 C   0  0  0  0  0  0  0  0  0  0  0  0
   17.1319  -17.5271    5.8753 C   0  0  2  0  0  0  0  0  0  0  0  0
   16.4254  -18.6705    5.3406 N   0  0  0  0  0  0  0  0  0  0  0  0
   18.0842  -17.9622    6.9635 C   0  0  0  0  0  0  0  0  0  0  0  0
   17.7194  -18.9012    7.7108 O   0  0  0  0  0  0  0  0  0  0  0  0
   20.0407  -11.7736    5.9022 C   0  0  0  0  0  0  0  0  0  0  0  0
   25.2472  -17.4066   10.5263 S   0  0  0  0  0  0  0  0  0  0  0  0
   24.1899  -16.9393    9.1116 C   0  0  0  0  0  0  0  0  0  0  0  0
   22.5069  -17.4197    9.2684 C   0  0  0  0  0  0  0  0  0  0  0  0
   21.5648  -17.1751    8.1859 C   0  0  1  0  0  0  0  0  0  0  0  0
   20.2067  -17.6968    8.2362 N   0  0  0  0  0  0  0  0  0  0  0  0
   19.3303  -17.3501    7.1447 C   0  0  0  0  0  0  0  0  0  0  0  0
   19.4511  -17.6730    9.4842 O   0  0  0  0  0  0  0  0  0  0  0  0
   19.4992  -18.8462   10.2833 O   0  0  0  0  0  0  0  0  0  0  0  0
  1  2  1  0
  2  3  1  0
  3  4  1  6
  5  3  1  0
  5  6  2  0
  7  8  1  0
  8 10  1  0
  9  8  2  0
 10 11  1  0
 11 12  1  0
 12 13  1  0
 14 15  1  0
 14 13  1  1
 15  5  1  0
 16 14  1  0
 17 16  2  0
 18 19  1  0
 20 21  1  0
 20 19  1  0
 22 21  1  6
 22 24  1  0
 22 23  1  0
 23 16  1  0
 24 25  1  0
 26 24  2  0
M  END
$$$$
