SRM.pdb
     RDKit          3D

 26 25  0  0  1  0  0  0  0  0999 V2000
   17.7421  -21.9234   -8.9789 O   0  0  0  0  0  0  0  0  0  0  0  0
   18.9061  -22.4799   -8.4233 C   0  0  0  0  0  0  0  0  0  0  0  0
   19.1076  -23.8964   -8.9191 C   0  0  2  0  0  0  0  0  0  0  0  0
   18.8357  -23.8502  -10.3623 N   0  0  0  0  0  0  0  0  0  0  0  0
   18.1621  -24.7958   -8.2297 C   0  0  0  0  0  0  0  0  0  0  0  0
   17.0837  -25.0891   -8.7997 O   0  0  0  0  0  0  0  0  0  0  0  0
   15.4298  -30.3636   -3.1940 N   0  0  0  0  0  0  0  0  0  0  0  0
   16.1320  -31.1329   -4.1599 C   0  0  0  0  0  0  0  0  0  0  0  0
   15.5847  -32.2154   -4.5813 N   0  0  0  0  0  0  0  0  0  0  0  0
   17.4029  -30.7397   -4.6620 N   0  0  0  0  0  0  0  0  0  0  0  0
   17.9938  -29.4666   -4.3622 C   0  0  0  0  0  0  0  0  0  0  0  0
   17.2132  -28.3027   -4.8779 C   0  0  0  0  0  0  0  0  0  0  0  0
   18.1368  -27.3991   -5.6620 C   0  0  0  0  0  0  0  0  0  0  0  0
   17.4777  -26.1979   -6.2511 C   0  0  2  0  0  0  0  0  0  0  0  0
   18.4142  -25.3463   -6.9512 N   0  0  0  0  0  0  0  0  0  0  0  0
   16.8583  -25.4536   -5.0924 C   0  0  0  0  0  0  0  0  0  0  0  0
   17.6180  -24.7522   -4.3823 O   0  0  0  0  0  0  0  0  0  0  0  0
   15.9688  -32.7758   -5.3716 C   0  0  0  0  0  0  0  0  0  0  0  0
   14.9618  -23.7166    1.7405 S   0  0  0  0  0  0  0  0  0  0  0  0
   15.8286  -24.5028    0.3376 C   0  0  0  0  0  0  0  0  0  0  0  0
   15.0127  -24.3369   -1.2098 C   0  0  0  0  0  0  0  0  0  0  0  0
   15.5654  -24.9548   -2.4065 C   0  0  2  0  0  0  0  0  0  0  0  0
   14.8936  -24.8403   -3.6929 N   0  0  0  0  0  0  0  0  0  0  0  0
   15.4898  -25.5337   -4.8079 C   0  0  0  0  0  0  0  0  0  0  0  0
   14.3811  -23.5520   -4.1476 O   0  0  0  0  0  0  0  0  0  0  0  0
   13.6459  -22.7870   -3.2035 O   0  0  0  0  0  0  0  0  0  0  0  0
  1  2  1  0
  2  3  1  0
  3  4  1  6
  5  3  1  0
  5  6  2  0
  7  8  1  0
  8 10  1  0
  9  8  2  0
 10 11  1  0
 11 12  1  0
 12 13  1  0
 14 15  1  0
 14 13  1  1
 15  5  1  0
 16 14  1  0
 17 16  2  0
 18 19  1  0
 20 21  1  0
 20 19  1  0
 22 21  1  1
 22 24  1  0
 22 23  1  0
 23 16  1  0
 24 25  1  0
 26 24  2  0
M  END
$$$$
