SRM.pdb
     RDKit          3D

 26 25  0  0  1  0  0  0  0  0999 V2000
   28.8449  -23.4132  -16.6192 O   0  0  0  0  0  0  0  0  0  0  0  0
   27.6118  -22.7883  -16.3699 C   0  0  0  0  0  0  0  0  0  0  0  0
   27.7785  -21.2842  -16.3177 C   0  0  2  0  0  0  0  0  0  0  0  0
   29.2086  -21.0555  -16.0697 N   0  0  0  0  0  0  0  0  0  0  0  0
   26.9559  -20.7380  -15.2208 C   0  0  0  0  0  0  0  0  0  0  0  0
   27.4456  -19.8477  -14.4851 O   0  0  0  0  0  0  0  0  0  0  0  0
   20.2600  -17.4997  -13.7583 N   0  0  0  0  0  0  0  0  0  0  0  0
   19.7001  -18.4536  -12.8671 C   0  0  0  0  0  0  0  0  0  0  0  0
   18.9712  -18.0211  -11.9023 N   0  0  0  0  0  0  0  0  0  0  0  0
   19.9231  -19.8501  -13.0154 N   0  0  0  0  0  0  0  0  0  0  0  0
   20.9421  -20.3847  -13.8730 C   0  0  0  0  0  0  0  0  0  0  0  0
   22.3313  -20.0418  -13.4458 C   0  0  0  0  0  0  0  0  0  0  0  0
   23.3116  -20.6656  -14.4122 C   0  0  0  0  0  0  0  0  0  0  0  0
   24.7452  -20.5018  -14.0350 C   0  0  2  0  0  0  0  0  0  0  0  0
   25.6353  -21.1716  -14.9577 N   0  0  0  0  0  0  0  0  0  0  0  0
   24.8814  -21.0943  -12.6527 C   0  0  0  0  0  0  0  0  0  0  0  0
   24.7837  -22.3401  -12.5445 O   0  0  0  0  0  0  0  0  0  0  0  0
   18.5040  -18.6517  -11.2165 C   0  0  0  0  0  0  0  0  0  0  0  0
   28.2243  -18.3509   -7.4767 S   0  0  0  0  0  0  0  0  0  0  0  0
   27.6931  -20.0194   -6.9554 C   0  0  0  0  0  0  0  0  0  0  0  0
   26.4683  -20.7495   -7.9823 C   0  0  0  0  0  0  0  0  0  0  0  0
   26.2955  -20.3038   -9.3574 C   0  0  1  0  0  0  0  0  0  0  0  0
   25.2459  -20.8550  -10.2022 N   0  0  0  0  0  0  0  0  0  0  0  0
   25.1076  -20.2966  -11.5245 C   0  0  0  0  0  0  0  0  0  0  0  0
   23.9206  -21.1244   -9.6542 O   0  0  0  0  0  0  0  0  0  0  0  0
   23.8492  -22.0499   -8.5793 O   0  0  0  0  0  0  0  0  0  0  0  0
  1  2  1  0
  2  3  1  0
  3  4  1  1
  5  3  1  0
  5  6  2  0
  7  8  1  0
  8 10  1  0
  9  8  2  0
 10 11  1  0
 11 12  1  0
 12 13  1  0
 14 15  1  0
 14 13  1  6
 15  5  1  0
 16 14  1  0
 17 16  2  0
 18 19  1  0
 20 21  1  0
 20 19  1  0
 22 21  1  6
 22 24  1  0
 22 23  1  0
 23 16  1  0
 24 25  1  0
 26 24  2  0
M  END
$$$$
