SRM.pdb
     RDKit          3D

 26 25  0  0  1  0  0  0  0  0999 V2000
   25.1986  -22.4647  -11.1997 O   0  0  0  0  0  0  0  0  0  0  0  0
   26.5093  -21.9991  -11.0035 C   0  0  0  0  0  0  0  0  0  0  0  0
   26.5034  -20.5275  -10.6466 C   0  0  2  0  0  0  0  0  0  0  0  0
   25.8106  -20.4394   -9.3537 N   0  0  0  0  0  0  0  0  0  0  0  0
   25.7795  -19.7737  -11.6886 C   0  0  0  0  0  0  0  0  0  0  0  0
   24.6896  -19.2281  -11.3914 O   0  0  0  0  0  0  0  0  0  0  0  0
   28.7986  -22.7558  -16.6092 N   0  0  0  0  0  0  0  0  0  0  0  0
   27.9498  -22.3727  -17.6819 C   0  0  0  0  0  0  0  0  0  0  0  0
   27.5233  -23.2922  -18.4703 N   0  0  0  0  0  0  0  0  0  0  0  0
   27.5682  -21.0203  -17.8990 N   0  0  0  0  0  0  0  0  0  0  0  0
   27.8135  -19.9827  -16.9383 C   0  0  0  0  0  0  0  0  0  0  0  0
   27.0959  -20.1777  -15.6433 C   0  0  0  0  0  0  0  0  0  0  0  0
   26.2584  -18.9530  -15.3554 C   0  0  0  0  0  0  0  0  0  0  0  0
   25.4996  -19.0070  -14.0725 C   0  0  2  0  0  0  0  0  0  0  0  0
   26.2576  -19.6354  -13.0129 N   0  0  0  0  0  0  0  0  0  0  0  0
   24.2483  -19.8009  -14.3630 C   0  0  0  0  0  0  0  0  0  0  0  0
   24.3140  -21.0481  -14.2475 O   0  0  0  0  0  0  0  0  0  0  0  0
   26.8608  -23.1069  -19.2532 C   0  0  0  0  0  0  0  0  0  0  0  0
   17.2228  -17.3924  -13.5169 S   0  0  0  0  0  0  0  0  0  0  0  0
   19.0122  -17.6604  -13.2641 C   0  0  0  0  0  0  0  0  0  0  0  0
   19.5597  -19.2962  -13.5992 C   0  0  0  0  0  0  0  0  0  0  0  0
   20.9709  -19.6386  -13.4968 C   0  0  1  0  0  0  0  0  0  0  0  0
   21.7811  -19.8603  -14.6858 N   0  0  0  0  0  0  0  0  0  0  0  0
   23.0526  -19.1829  -14.7485 C   0  0  0  0  0  0  0  0  0  0  0  0
   21.1683  -19.8539  -16.0100 O   0  0  0  0  0  0  0  0  0  0  0  0
   21.5925  -18.8368  -16.9059 O   0  0  0  0  0  0  0  0  0  0  0  0
  1  2  1  0
  2  3  1  0
  3  4  1  1
  5  3  1  0
  5  6  2  0
  7  8  1  0
  8 10  1  0
  9  8  2  0
 10 11  1  0
 11 12  1  0
 12 13  1  0
 14 15  1  0
 14 13  1  6
 15  5  1  0
 16 14  1  0
 17 16  2  0
 18 19  1  0
 20 21  1  0
 20 19  1  0
 22 21  1  1
 22 24  1  0
 22 23  1  0
 23 16  1  0
 24 25  1  0
 26 24  2  0
M  END
$$$$
