SRM.pdb
     RDKit          3D

 26 25  0  0  1  0  0  0  0  0999 V2000
   29.6695  -20.2304  -13.0831 O   0  0  0  0  0  0  0  0  0  0  0  0
   29.1338  -20.6665  -14.3062 C   0  0  0  0  0  0  0  0  0  0  0  0
   27.9465  -19.8138  -14.7013 C   0  0  2  0  0  0  0  0  0  0  0  0
   28.5020  -18.4929  -15.0265 N   0  0  0  0  0  0  0  0  0  0  0  0
   27.0055  -19.7291  -13.5676 C   0  0  0  0  0  0  0  0  0  0  0  0
   26.9933  -18.6863  -12.8702 O   0  0  0  0  0  0  0  0  0  0  0  0
   23.6337  -25.2202  -13.4688 N   0  0  0  0  0  0  0  0  0  0  0  0
   22.4629  -24.6913  -14.0749 C   0  0  0  0  0  0  0  0  0  0  0  0
   21.3847  -25.3858  -14.0096 N   0  0  0  0  0  0  0  0  0  0  0  0
   22.4567  -23.4343  -14.7394 N   0  0  0  0  0  0  0  0  0  0  0  0
   23.4398  -22.4197  -14.4865 C   0  0  0  0  0  0  0  0  0  0  0  0
   23.0974  -21.5191  -13.3456 C   0  0  0  0  0  0  0  0  0  0  0  0
   24.0998  -21.7298  -12.2342 C   0  0  0  0  0  0  0  0  0  0  0  0
   25.1572  -20.6819  -12.1445 C   0  0  2  0  0  0  0  0  0  0  0  0
   26.1118  -20.7716  -13.2276 N   0  0  0  0  0  0  0  0  0  0  0  0
   25.8470  -20.9001  -10.8191 C   0  0  0  0  0  0  0  0  0  0  0  0
   26.7033  -21.8144  -10.7556 O   0  0  0  0  0  0  0  0  0  0  0  0
   20.4915  -25.0915  -14.4587 C   0  0  0  0  0  0  0  0  0  0  0  0
   30.0058  -19.6538   -4.9573 S   0  0  0  0  0  0  0  0  0  0  0  0
   28.4926  -18.8092   -5.5357 C   0  0  0  0  0  0  0  0  0  0  0  0
   27.3230  -19.8618   -6.3181 C   0  0  0  0  0  0  0  0  0  0  0  0
   26.9166  -19.6202   -7.6949 C   0  0  1  0  0  0  0  0  0  0  0  0
   25.9682  -20.4974   -8.3659 N   0  0  0  0  0  0  0  0  0  0  0  0
   25.5526  -20.1202   -9.6942 C   0  0  0  0  0  0  0  0  0  0  0  0
   24.8242  -21.0417   -7.6418 O   0  0  0  0  0  0  0  0  0  0  0  0
   23.5620  -20.9628   -8.2881 O   0  0  0  0  0  0  0  0  0  0  0  0
  1  2  1  0
  2  3  1  0
  3  4  1  1
  5  3  1  0
  5  6  2  0
  7  8  1  0
  8 10  1  0
  9  8  2  0
 10 11  1  0
 11 12  1  0
 12 13  1  0
 14 15  1  0
 14 13  1  6
 15  5  1  0
 16 14  1  0
 17 16  2  0
 18 19  1  0
 20 21  1  0
 20 19  1  0
 22 21  1  6
 22 24  1  0
 22 23  1  0
 23 16  1  0
 24 25  1  0
 26 24  2  0
M  END
$$$$
