SRM.pdb
     RDKit          3D

 26 25  0  0  1  0  0  0  0  0999 V2000
   17.8698  -26.4364   -3.4560 O   0  0  0  0  0  0  0  0  0  0  0  0
   16.8446  -26.5490   -4.4097 C   0  0  0  0  0  0  0  0  0  0  0  0
   16.7607  -25.2931   -5.2515 C   0  0  2  0  0  0  0  0  0  0  0  0
   18.1488  -24.9598   -5.5998 N   0  0  0  0  0  0  0  0  0  0  0  0
   16.1386  -24.2138   -4.4603 C   0  0  0  0  0  0  0  0  0  0  0  0
   16.8785  -23.3483   -3.9337 O   0  0  0  0  0  0  0  0  0  0  0  0
   11.0875  -18.8556   -2.9347 N   0  0  0  0  0  0  0  0  0  0  0  0
   10.6032  -19.2942   -4.1960 C   0  0  0  0  0  0  0  0  0  0  0  0
   10.4912  -18.4240   -5.1337 N   0  0  0  0  0  0  0  0  0  0  0  0
   10.2465  -20.6487   -4.4403 N   0  0  0  0  0  0  0  0  0  0  0  0
   10.5525  -21.7079   -3.5214 C   0  0  0  0  0  0  0  0  0  0  0  0
   11.9865  -21.7513   -3.1067 C   0  0  0  0  0  0  0  0  0  0  0  0
   12.6818  -22.8650   -3.8554 C   0  0  0  0  0  0  0  0  0  0  0  0
   14.1210  -23.0434   -3.5071 C   0  0  2  0  0  0  0  0  0  0  0  0
   14.7414  -24.1070   -4.2662 N   0  0  0  0  0  0  0  0  0  0  0  0
   14.1547  -23.3645   -2.0319 C   0  0  0  0  0  0  0  0  0  0  0  0
   14.0258  -24.5666   -1.6979 O   0  0  0  0  0  0  0  0  0  0  0  0
   10.1442  -18.6588   -6.0880 C   0  0  0  0  0  0  0  0  0  0  0  0
   17.6099  -21.9235    4.8815 S   0  0  0  0  0  0  0  0  0  0  0  0
   17.1866  -21.2998    3.2174 C   0  0  0  0  0  0  0  0  0  0  0  0
   15.8842  -22.1703    2.4213 C   0  0  0  0  0  0  0  0  0  0  0  0
   15.5875  -21.9328    1.0160 C   0  0  1  0  0  0  0  0  0  0  0  0
   14.5436  -22.6797    0.3292 N   0  0  0  0  0  0  0  0  0  0  0  0
   14.3222  -22.3692   -1.0615 C   0  0  0  0  0  0  0  0  0  0  0  0
   13.2588  -22.9214    0.9773 O   0  0  0  0  0  0  0  0  0  0  0  0
   13.2536  -23.8325    2.0668 O   0  0  0  0  0  0  0  0  0  0  0  0
  1  2  1  0
  2  3  1  0
  3  4  1  1
  5  3  1  0
  5  6  2  0
  7  8  1  0
  8 10  1  0
  9  8  2  0
 10 11  1  0
 11 12  1  0
 12 13  1  0
 14 15  1  0
 14 13  1  6
 15  5  1  0
 16 14  1  0
 17 16  2  0
 18 19  1  0
 20 21  1  0
 20 19  1  0
 22 21  1  6
 22 24  1  0
 22 23  1  0
 23 16  1  0
 24 25  1  0
 26 24  2  0
M  END
$$$$
