SRM.pdb
     RDKit          3D

 26 25  0  0  1  0  0  0  0  0999 V2000
   20.8041  -19.4238   -9.3927 O   0  0  0  0  0  0  0  0  0  0  0  0
   21.1953  -18.6596  -10.5046 C   0  0  0  0  0  0  0  0  0  0  0  0
   21.5225  -19.5579  -11.6790 C   0  0  2  0  0  0  0  0  0  0  0  0
   20.3787  -20.4715  -11.8057 N   0  0  0  0  0  0  0  0  0  0  0  0
   22.7659  -20.3007  -11.3958 C   0  0  0  0  0  0  0  0  0  0  0  0
   22.6818  -21.4710  -10.9518 O   0  0  0  0  0  0  0  0  0  0  0  0
   26.0106  -22.3853  -16.0573 N   0  0  0  0  0  0  0  0  0  0  0  0
   27.4013  -22.6516  -15.9445 C   0  0  0  0  0  0  0  0  0  0  0  0
   27.8790  -23.6468  -16.6007 N   0  0  0  0  0  0  0  0  0  0  0  0
   28.2610  -21.8569  -15.1376 N   0  0  0  0  0  0  0  0  0  0  0  0
   27.7710  -20.8327  -14.2598 C   0  0  0  0  0  0  0  0  0  0  0  0
   26.7133  -21.3022  -13.3160 C   0  0  0  0  0  0  0  0  0  0  0  0
   26.3217  -20.1597  -12.4075 C   0  0  0  0  0  0  0  0  0  0  0  0
   25.2779  -20.4988  -11.3977 C   0  0  2  0  0  0  0  0  0  0  0  0
   24.0545  -19.7546  -11.6021 N   0  0  0  0  0  0  0  0  0  0  0  0
   25.8764  -20.1631  -10.0525 C   0  0  0  0  0  0  0  0  0  0  0  0
   25.7163  -18.9956   -9.6227 O   0  0  0  0  0  0  0  0  0  0  0  0
   28.8794  -23.9343  -16.5480 C   0  0  0  0  0  0  0  0  0  0  0  0
   26.8792  -17.0150   -4.7306 S   0  0  0  0  0  0  0  0  0  0  0  0
   26.6321  -18.8178   -4.5672 C   0  0  0  0  0  0  0  0  0  0  0  0
   27.4076  -19.7771   -5.8187 C   0  0  0  0  0  0  0  0  0  0  0  0
   26.7262  -20.0382   -7.0783 C   0  0  1  0  0  0  0  0  0  0  0  0
   27.3942  -20.7386   -8.1657 N   0  0  0  0  0  0  0  0  0  0  0  0
   26.5864  -21.1078   -9.3018 C   0  0  0  0  0  0  0  0  0  0  0  0
   28.3426  -21.8108   -7.8827 O   0  0  0  0  0  0  0  0  0  0  0  0
   29.5001  -21.8736   -8.7031 O   0  0  0  0  0  0  0  0  0  0  0  0
  1  2  1  0
  2  3  1  0
  3  4  1  1
  5  3  1  0
  5  6  2  0
  7  8  1  0
  8 10  1  0
  9  8  2  0
 10 11  1  0
 11 12  1  0
 12 13  1  0
 14 15  1  0
 14 13  1  6
 15  5  1  0
 16 14  1  0
 17 16  2  0
 18 19  1  0
 20 21  1  0
 20 19  1  0
 22 21  1  6
 22 24  1  0
 22 23  1  0
 23 16  1  0
 24 25  1  0
 26 24  2  0
M  END
$$$$
