SRM.pdb
     RDKit          3D

 26 25  0  0  1  0  0  0  0  0999 V2000
   20.5068  -31.0977   -9.1094 O   0  0  0  0  0  0  0  0  0  0  0  0
   20.0944  -30.7782  -10.4136 C   0  0  0  0  0  0  0  0  0  0  0  0
   21.0435  -29.7796  -11.0421 C   0  0  2  0  0  0  0  0  0  0  0  0
   22.3771  -30.1326  -10.5363 N   0  0  0  0  0  0  0  0  0  0  0  0
   20.6633  -28.4150  -10.6281 C   0  0  0  0  0  0  0  0  0  0  0  0
   21.3126  -27.8604   -9.7090 O   0  0  0  0  0  0  0  0  0  0  0  0
   16.4483  -21.7965  -10.9235 N   0  0  0  0  0  0  0  0  0  0  0  0
   17.1995  -21.2924  -12.0186 C   0  0  0  0  0  0  0  0  0  0  0  0
   17.3853  -20.0236  -12.0883 N   0  0  0  0  0  0  0  0  0  0  0  0
   17.7409  -22.1436  -13.0207 N   0  0  0  0  0  0  0  0  0  0  0  0
   17.6411  -23.5739  -12.9583 C   0  0  0  0  0  0  0  0  0  0  0  0
   18.2694  -24.1701  -11.7418 C   0  0  0  0  0  0  0  0  0  0  0  0
   18.6290  -25.6097  -12.0288 C   0  0  0  0  0  0  0  0  0  0  0  0
   19.2814  -26.3249  -10.8943 C   0  0  2  0  0  0  0  0  0  0  0  0
   19.5971  -27.6983  -11.2204 N   0  0  0  0  0  0  0  0  0  0  0  0
   18.2985  -26.2714   -9.7491 C   0  0  0  0  0  0  0  0  0  0  0  0
   17.1466  -26.7241   -9.9531 O   0  0  0  0  0  0  0  0  0  0  0  0
   17.9429  -19.5718  -12.8440 C   0  0  0  0  0  0  0  0  0  0  0  0
   18.4285  -27.8518   -2.6925 S   0  0  0  0  0  0  0  0  0  0  0  0
   18.3245  -26.1208   -3.2673 C   0  0  0  0  0  0  0  0  0  0  0  0
   17.5652  -25.9180   -4.8389 C   0  0  0  0  0  0  0  0  0  0  0  0
   18.3743  -25.8501   -6.0472 C   0  0  2  0  0  0  0  0  0  0  0  0
   17.7582  -25.8021   -7.3653 N   0  0  0  0  0  0  0  0  0  0  0  0
   18.6442  -25.7390   -8.5013 C   0  0  0  0  0  0  0  0  0  0  0  0
   16.6020  -24.9463   -7.6105 O   0  0  0  0  0  0  0  0  0  0  0  0
   16.8614  -23.6645   -8.1645 O   0  0  0  0  0  0  0  0  0  0  0  0
  1  2  1  0
  2  3  1  0
  3  4  1  1
  5  3  1  0
  5  6  2  0
  7  8  1  0
  8 10  1  0
  9  8  2  0
 10 11  1  0
 11 12  1  0
 12 13  1  0
 14 15  1  0
 14 13  1  6
 15  5  1  0
 16 14  1  0
 17 16  2  0
 18 19  1  0
 20 21  1  0
 20 19  1  0
 22 21  1  6
 22 24  1  0
 22 23  1  0
 23 16  1  0
 24 25  1  0
 26 24  2  0
M  END
$$$$
