SRM.pdb
     RDKit          3D

 26 25  0  0  1  0  0  0  0  0999 V2000
   28.1568  -16.9230  -17.2872 O   0  0  0  0  0  0  0  0  0  0  0  0
   27.4782  -17.2061  -16.0903 C   0  0  0  0  0  0  0  0  0  0  0  0
   25.9804  -17.1138  -16.2932 C   0  0  2  0  0  0  0  0  0  0  0  0
   25.6921  -15.6812  -16.4471 N   0  0  0  0  0  0  0  0  0  0  0  0
   25.2910  -17.6697  -15.1127 C   0  0  0  0  0  0  0  0  0  0  0  0
   25.0750  -16.9190  -14.1310 O   0  0  0  0  0  0  0  0  0  0  0  0
   19.8380  -24.6587  -13.9011 N   0  0  0  0  0  0  0  0  0  0  0  0
   19.7221  -23.2858  -14.2466 C   0  0  0  0  0  0  0  0  0  0  0  0
   18.7378  -22.9335  -14.9924 N   0  0  0  0  0  0  0  0  0  0  0  0
   20.6526  -22.3105  -13.7943 N   0  0  0  0  0  0  0  0  0  0  0  0
   22.0024  -22.6372  -13.4325 C   0  0  0  0  0  0  0  0  0  0  0  0
   22.8043  -21.4646  -12.9720 C   0  0  0  0  0  0  0  0  0  0  0  0
   23.4075  -20.7776  -14.1755 C   0  0  0  0  0  0  0  0  0  0  0  0
   24.2481  -19.5881  -13.8551 C   0  0  2  0  0  0  0  0  0  0  0  0
   24.8594  -19.0146  -15.0340 N   0  0  0  0  0  0  0  0  0  0  0  0
   25.3104  -20.0755  -12.8989 C   0  0  0  0  0  0  0  0  0  0  0  0
   26.1929  -20.8412  -13.3552 O   0  0  0  0  0  0  0  0  0  0  0  0
   18.5494  -21.9423  -15.2536 C   0  0  0  0  0  0  0  0  0  0  0  0
   29.0058  -19.4598   -5.9848 S   0  0  0  0  0  0  0  0  0  0  0  0
   27.3340  -19.3366   -6.7112 C   0  0  0  0  0  0  0  0  0  0  0  0
   27.1285  -20.2104   -8.2218 C   0  0  0  0  0  0  0  0  0  0  0  0
   26.2428  -19.6980   -9.2572 C   0  0  1  0  0  0  0  0  0  0  0  0
   26.2663  -20.2430  -10.6069 N   0  0  0  0  0  0  0  0  0  0  0  0
   25.3231  -19.6966  -11.5511 C   0  0  0  0  0  0  0  0  0  0  0  0
   26.3813  -21.6817  -10.8216 O   0  0  0  0  0  0  0  0  0  0  0  0
   27.6905  -22.1963  -11.0172 O   0  0  0  0  0  0  0  0  0  0  0  0
  1  2  1  0
  2  3  1  0
  3  4  1  1
  5  3  1  0
  5  6  2  0
  7  8  1  0
  8 10  1  0
  9  8  2  0
 10 11  1  0
 11 12  1  0
 12 13  1  0
 14 15  1  0
 14 13  1  6
 15  5  1  0
 16 14  1  0
 17 16  2  0
 18 19  1  0
 20 21  1  0
 20 19  1  0
 22 21  1  6
 22 24  1  0
 22 23  1  0
 23 16  1  0
 24 25  1  0
 26 24  2  0
M  END
$$$$
