LSW.pdb
     RDKit          3D

 29 30  0  0  1  0  0  0  0  0999 V2000
   27.1225  -18.9801   -7.3159 C   0  0  0  0  0  0  0  0  0  0  0  0
   27.5841  -20.3575   -7.7475 C   0  0  2  0  0  0  0  0  0  0  0  0
   29.0156  -20.5101   -7.3432 C   0  0  0  0  0  0  0  0  0  0  0  0
   27.3098  -20.5027   -9.2008 C   0  0  0  0  0  0  0  0  0  0  0  0
   25.8987  -20.1710   -9.5876 C   0  0  2  0  0  0  0  0  0  0  0  0
   25.0485  -21.0849   -8.8032 N   0  0  0  0  0  0  0  0  0  0  0  0
   25.5825  -20.4054  -10.9870 C   0  0  0  0  0  0  0  0  0  0  0  0
   26.2686  -19.7274  -11.8341 O   0  0  0  0  0  0  0  0  0  0  0  0
   22.3083  -22.4310  -12.2568 O   0  0  0  0  0  0  0  0  0  0  0  0
   23.4571  -22.6982  -13.0127 C   0  0  0  0  0  0  0  0  0  0  0  0
   24.4322  -21.5099  -12.9494 C   0  0  2  0  0  0  0  0  0  0  0  0
   24.6304  -21.2718  -11.5334 N   0  0  0  0  0  0  0  0  0  0  0  0
   23.7155  -20.3739  -13.5869 C   0  0  0  0  0  0  0  0  0  0  0  0
   22.8954  -19.6855  -12.9186 O   0  0  0  0  0  0  0  0  0  0  0  0
   23.9152  -20.0186  -14.9462 N   0  0  0  0  0  0  0  0  0  0  0  0
   23.3002  -18.7994  -15.5246 C   0  0  1  0  0  0  0  0  0  0  0  0
   24.3770  -18.1033  -16.2660 C   0  0  0  0  0  0  0  0  0  0  0  0
   25.6040  -17.8439  -15.4877 C   0  0  0  0  0  0  0  0  0  0  0  0
   25.8214  -16.7053  -14.6854 C   0  0  0  0  0  0  0  0  0  0  0  0
   27.0550  -16.8004  -14.1727 N   0  0  0  0  0  0  0  0  0  0  0  0
   27.6605  -17.9142  -14.5771 C   0  0  0  0  0  0  0  0  0  0  0  0
   28.9196  -18.4336  -14.2906 C   0  0  0  0  0  0  0  0  0  0  0  0
   29.2562  -19.6340  -14.8489 C   0  0  0  0  0  0  0  0  0  0  0  0
   28.3838  -20.3334  -15.6807 C   0  0  0  0  0  0  0  0  0  0  0  0
   27.1523  -19.7853  -15.9378 C   0  0  0  0  0  0  0  0  0  0  0  0
   26.7657  -18.5665  -15.3932 C   0  0  0  0  0  0  0  0  0  0  0  0
   22.1553  -19.1446  -16.3569 C   0  0  0  0  0  0  0  0  0  0  0  0
   21.3507  -18.3345  -16.8578 O   0  0  0  0  0  0  0  0  0  0  0  0
   21.9095  -20.4940  -16.6378 O   0  0  0  0  0  0  0  0  0  0  0  0
  2  1  1  6
  2  4  1  0
  3  2  1  0
  5  4  1  0
  5  7  1  0
  5  6  1  1
  7  8  2  0
  7 12  1  0
  9 10  1  0
 11 10  1  1
 11 13  1  0
 12 11  1  0
 13 15  1  0
 14 13  2  0
 15 16  1  0
 16 17  1  6
 16 27  1  0
 18 17  1  0
 19 18  2  0
 20 19  1  0
 21 20  1  0
 21 26  2  0
 22 23  2  0
 22 21  1  0
 23 24  1  0
 24 25  2  0
 26 25  1  0
 26 18  1  0
 27 28  2  0
 27 29  1  0
M  END
$$$$
