LSW.pdb
     RDKit          3D

 29 30  0  0  1  0  0  0  0  0999 V2000
   28.4293  -20.5563   -5.2847 C   0  0  0  0  0  0  0  0  0  0  0  0
   28.5883  -19.3990   -6.2502 C   0  0  2  0  0  0  0  0  0  0  0  0
   28.8929  -18.1724   -5.4511 C   0  0  0  0  0  0  0  0  0  0  0  0
   27.3658  -19.3280   -7.0921 C   0  0  0  0  0  0  0  0  0  0  0  0
   27.2040  -20.4914   -8.0256 C   0  0  2  0  0  0  0  0  0  0  0  0
   28.5719  -20.9579   -8.3166 N   0  0  0  0  0  0  0  0  0  0  0  0
   26.5947  -20.1630   -9.3038 C   0  0  0  0  0  0  0  0  0  0  0  0
   25.5749  -19.3849   -9.2511 O   0  0  0  0  0  0  0  0  0  0  0  0
   27.7909  -21.9607  -12.6179 O   0  0  0  0  0  0  0  0  0  0  0  0
   27.1982  -20.7314  -12.9344 C   0  0  0  0  0  0  0  0  0  0  0  0
   26.2531  -20.2826  -11.8064 C   0  0  2  0  0  0  0  0  0  0  0  0
   26.9718  -20.5816  -10.5837 N   0  0  0  0  0  0  0  0  0  0  0  0
   25.0439  -21.1375  -11.9380 C   0  0  0  0  0  0  0  0  0  0  0  0
   24.8674  -22.1123  -11.1558 O   0  0  0  0  0  0  0  0  0  0  0  0
   24.0537  -20.9031  -12.9273 N   0  0  0  0  0  0  0  0  0  0  0  0
   22.6195  -21.1727  -12.6642 C   0  0  1  0  0  0  0  0  0  0  0  0
   22.2590  -20.3728  -11.4709 C   0  0  0  0  0  0  0  0  0  0  0  0
   20.8456  -20.4714  -11.0569 C   0  0  0  0  0  0  0  0  0  0  0  0
   19.8113  -19.6340  -11.5221 C   0  0  0  0  0  0  0  0  0  0  0  0
   18.6841  -19.9965  -10.8965 N   0  0  0  0  0  0  0  0  0  0  0  0
   18.9015  -21.0073  -10.0587 C   0  0  0  0  0  0  0  0  0  0  0  0
   18.0395  -21.7133   -9.2246 C   0  0  0  0  0  0  0  0  0  0  0  0
   18.5630  -22.7356   -8.4851 C   0  0  0  0  0  0  0  0  0  0  0  0
   19.9124  -23.0782   -8.5477 C   0  0  0  0  0  0  0  0  0  0  0  0
   20.7276  -22.3559   -9.3825 C   0  0  0  0  0  0  0  0  0  0  0  0
   20.2406  -21.3071  -10.1534 C   0  0  0  0  0  0  0  0  0  0  0  0
   21.8124  -20.8587  -13.8358 C   0  0  0  0  0  0  0  0  0  0  0  0
   21.9981  -19.8993  -14.6101 O   0  0  0  0  0  0  0  0  0  0  0  0
   20.7270  -21.6864  -14.1472 O   0  0  0  0  0  0  0  0  0  0  0  0
  2  1  1  1
  2  4  1  0
  3  2  1  0
  5  4  1  0
  5  7  1  0
  5  6  1  6
  7  8  2  0
  7 12  1  0
  9 10  1  0
 11 10  1  6
 11 13  1  0
 12 11  1  0
 13 15  1  0
 14 13  2  0
 15 16  1  0
 16 17  1  1
 16 27  1  0
 18 17  1  0
 19 18  2  0
 20 19  1  0
 21 20  1  0
 21 26  2  0
 22 23  2  0
 22 21  1  0
 23 24  1  0
 24 25  2  0
 26 25  1  0
 26 18  1  0
 27 28  2  0
 27 29  1  0
M  END
$$$$
