LSW.pdb
     RDKit          3D

 29 30  0  0  1  0  0  0  0  0999 V2000
   23.0753  -12.3856  -15.3181 C   0  0  0  0  0  0  0  0  0  0  0  0
   22.6698  -13.2500  -16.4949 C   0  0  2  0  0  0  0  0  0  0  0  0
   21.3854  -12.7118  -17.0395 C   0  0  0  0  0  0  0  0  0  0  0  0
   22.6297  -14.6636  -16.0382 C   0  0  0  0  0  0  0  0  0  0  0  0
   23.9672  -15.2068  -15.6293 C   0  0  2  0  0  0  0  0  0  0  0  0
   24.9552  -14.4860  -16.4526 N   0  0  0  0  0  0  0  0  0  0  0  0
   24.1543  -16.6231  -15.8981 C   0  0  0  0  0  0  0  0  0  0  0  0
   23.3490  -17.4166  -15.2898 O   0  0  0  0  0  0  0  0  0  0  0  0
   27.1793  -18.0219  -18.1916 O   0  0  0  0  0  0  0  0  0  0  0  0
   26.0052  -18.7813  -18.2759 C   0  0  0  0  0  0  0  0  0  0  0  0
   25.1918  -18.6620  -16.9755 C   0  0  2  0  0  0  0  0  0  0  0  0
   25.0947  -17.2364  -16.7318 N   0  0  0  0  0  0  0  0  0  0  0  0
   26.0136  -19.3278  -15.9307 C   0  0  0  0  0  0  0  0  0  0  0  0
   27.2348  -19.0359  -15.8020 O   0  0  0  0  0  0  0  0  0  0  0  0
   25.4758  -20.3012  -15.0492 N   0  0  0  0  0  0  0  0  0  0  0  0
   26.2996  -20.9139  -13.9791 C   0  0  1  0  0  0  0  0  0  0  0  0
   26.4738  -19.8716  -12.9414 C   0  0  0  0  0  0  0  0  0  0  0  0
   27.2811  -20.2803  -11.7752 C   0  0  0  0  0  0  0  0  0  0  0  0
   28.6358  -20.6664  -11.8308 C   0  0  0  0  0  0  0  0  0  0  0  0
   29.0119  -21.0048  -10.5909 N   0  0  0  0  0  0  0  0  0  0  0  0
   28.0077  -20.8686   -9.7285 C   0  0  0  0  0  0  0  0  0  0  0  0
   27.9386  -21.0817   -8.3548 C   0  0  0  0  0  0  0  0  0  0  0  0
   26.7510  -20.8281   -7.7293 C   0  0  0  0  0  0  0  0  0  0  0  0
   25.6325  -20.3704   -8.4232 C   0  0  0  0  0  0  0  0  0  0  0  0
   25.7436  -20.1742   -9.7769 C   0  0  0  0  0  0  0  0  0  0  0  0
   26.9307  -20.4192  -10.4567 C   0  0  0  0  0  0  0  0  0  0  0  0
   25.6723  -22.1295  -13.4776 C   0  0  0  0  0  0  0  0  0  0  0  0
   24.4499  -22.3749  -13.4906 O   0  0  0  0  0  0  0  0  0  0  0  0
   26.4843  -23.1285  -12.9273 O   0  0  0  0  0  0  0  0  0  0  0  0
  2  1  1  1
  2  4  1  0
  3  2  1  0
  5  4  1  0
  5  7  1  0
  5  6  1  6
  7  8  2  0
  7 12  1  0
  9 10  1  0
 11 10  1  6
 11 13  1  0
 12 11  1  0
 13 15  1  0
 14 13  2  0
 15 16  1  0
 16 17  1  1
 16 27  1  0
 18 17  1  0
 19 18  2  0
 20 19  1  0
 21 20  1  0
 21 26  2  0
 22 23  2  0
 22 21  1  0
 23 24  1  0
 24 25  2  0
 26 25  1  0
 26 18  1  0
 27 28  2  0
 27 29  1  0
M  END
$$$$
