LSW.pdb
     RDKit          3D

 29 30  0  0  1  0  0  0  0  0999 V2000
   20.8991  -13.3463  -18.8935 C   0  0  0  0  0  0  0  0  0  0  0  0
   22.3304  -13.2380  -19.3796 C   0  0  2  0  0  0  0  0  0  0  0  0
   23.1734  -14.1342  -18.5300 C   0  0  0  0  0  0  0  0  0  0  0  0
   22.7136  -11.8022  -19.3728 C   0  0  0  0  0  0  0  0  0  0  0  0
   21.8218  -10.9326  -20.2092 C   0  0  2  0  0  0  0  0  0  0  0  0
   22.1258  -11.2843  -21.6082 N   0  0  0  0  0  0  0  0  0  0  0  0
   22.0669   -9.5061  -20.0752 C   0  0  0  0  0  0  0  0  0  0  0  0
   23.1332   -9.0687  -20.6406 O   0  0  0  0  0  0  0  0  0  0  0  0
   19.3178   -6.8613  -19.9270 O   0  0  0  0  0  0  0  0  0  0  0  0
   20.6194   -6.4178  -20.1947 C   0  0  0  0  0  0  0  0  0  0  0  0
   21.6320   -7.1419  -19.2906 C   0  0  2  0  0  0  0  0  0  0  0  0
   21.2952   -8.5464  -19.4124 N   0  0  0  0  0  0  0  0  0  0  0  0
   21.3625   -6.6452  -17.9155 C   0  0  0  0  0  0  0  0  0  0  0  0
   20.3642   -7.0709  -17.2711 O   0  0  0  0  0  0  0  0  0  0  0  0
   22.1962   -5.6903  -17.2774 N   0  0  0  0  0  0  0  0  0  0  0  0
   21.8804   -5.1697  -15.9252 C   0  0  1  0  0  0  0  0  0  0  0  0
   22.9949   -5.5935  -15.0467 C   0  0  0  0  0  0  0  0  0  0  0  0
   23.0834   -7.0474  -14.8077 C   0  0  0  0  0  0  0  0  0  0  0  0
   22.0941   -7.8178  -14.1633 C   0  0  0  0  0  0  0  0  0  0  0  0
   22.5427   -9.0778  -14.0945 N   0  0  0  0  0  0  0  0  0  0  0  0
   23.7487   -9.1908  -14.6453 C   0  0  0  0  0  0  0  0  0  0  0  0
   24.5829  -10.2916  -14.8170 C   0  0  0  0  0  0  0  0  0  0  0  0
   25.7758  -10.0946  -15.4527 C   0  0  0  0  0  0  0  0  0  0  0  0
   26.1656   -8.8417  -15.9224 C   0  0  0  0  0  0  0  0  0  0  0  0
   25.3135   -7.7830  -15.7318 C   0  0  0  0  0  0  0  0  0  0  0  0
   24.0901   -7.9347  -15.0901 C   0  0  0  0  0  0  0  0  0  0  0  0
   21.6890   -3.7258  -15.9603 C   0  0  0  0  0  0  0  0  0  0  0  0
   21.7763   -3.0058  -16.9745 O   0  0  0  0  0  0  0  0  0  0  0  0
   21.3791   -3.0586  -14.7692 O   0  0  0  0  0  0  0  0  0  0  0  0
  2  1  1  1
  2  4  1  0
  3  2  1  0
  5  4  1  0
  5  7  1  0
  5  6  1  6
  7  8  2  0
  7 12  1  0
  9 10  1  0
 11 10  1  6
 11 13  1  0
 12 11  1  0
 13 15  1  0
 14 13  2  0
 15 16  1  0
 16 17  1  1
 16 27  1  0
 18 17  1  0
 19 18  2  0
 20 19  1  0
 21 20  1  0
 21 26  2  0
 22 23  2  0
 22 21  1  0
 23 24  1  0
 24 25  2  0
 26 25  1  0
 26 18  1  0
 27 28  2  0
 27 29  1  0
M  END
$$$$
