LSW.pdb
     RDKit          3D

 29 30  0  0  1  0  0  0  0  0999 V2000
   32.6414  -21.9112    6.7362 C   0  0  0  0  0  0  0  0  0  0  0  0
   33.3245  -22.0137    5.3874 C   0  0  2  0  0  0  0  0  0  0  0  0
   32.3013  -21.7396    4.3320 C   0  0  0  0  0  0  0  0  0  0  0  0
   33.9899  -23.3400    5.3055 C   0  0  0  0  0  0  0  0  0  0  0  0
   35.0242  -23.5659    6.3686 C   0  0  2  0  0  0  0  0  0  0  0  0
   35.8937  -24.6388    5.8526 N   0  0  0  0  0  0  0  0  0  0  0  0
   34.4954  -24.0329    7.6396 C   0  0  0  0  0  0  0  0  0  0  0  0
   33.8003  -25.1111    7.5912 O   0  0  0  0  0  0  0  0  0  0  0  0
   35.3090  -22.1766   11.1450 O   0  0  0  0  0  0  0  0  0  0  0  0
   35.0622  -23.5526   11.2358 C   0  0  0  0  0  0  0  0  0  0  0  0
   34.0849  -23.9986   10.1344 C   0  0  2  0  0  0  0  0  0  0  0  0
   34.6436  -23.4640    8.9085 N   0  0  0  0  0  0  0  0  0  0  0  0
   32.7914  -23.3431   10.4623 C   0  0  0  0  0  0  0  0  0  0  0  0
   32.5002  -22.2243    9.9557 O   0  0  0  0  0  0  0  0  0  0  0  0
   31.8447  -23.9313   11.3409 N   0  0  0  0  0  0  0  0  0  0  0  0
   30.5168  -23.3131   11.5722 C   0  0  1  0  0  0  0  0  0  0  0  0
   29.8777  -23.1928   10.2415 C   0  0  0  0  0  0  0  0  0  0  0  0
   28.4946  -22.6776   10.2574 C   0  0  0  0  0  0  0  0  0  0  0  0
   28.1429  -21.3239   10.4339 C   0  0  0  0  0  0  0  0  0  0  0  0
   26.8058  -21.2490   10.4321 N   0  0  0  0  0  0  0  0  0  0  0  0
   26.2560  -22.4495   10.2668 C   0  0  0  0  0  0  0  0  0  0  0  0
   24.9254  -22.8490   10.1833 C   0  0  0  0  0  0  0  0  0  0  0  0
   24.6695  -24.1761    9.9845 C   0  0  0  0  0  0  0  0  0  0  0  0
   25.6910  -25.1167    9.8662 C   0  0  0  0  0  0  0  0  0  0  0  0
   26.9890  -24.6802    9.9552 C   0  0  0  0  0  0  0  0  0  0  0  0
   27.2982  -23.3405   10.1575 C   0  0  0  0  0  0  0  0  0  0  0  0
   29.7384  -24.1020   12.5179 C   0  0  0  0  0  0  0  0  0  0  0  0
   29.7263  -25.3467   12.5889 O   0  0  0  0  0  0  0  0  0  0  0  0
   28.9233  -23.4352   13.4404 O   0  0  0  0  0  0  0  0  0  0  0  0
  2  1  1  1
  2  4  1  0
  3  2  1  0
  5  4  1  0
  5  7  1  0
  5  6  1  6
  7  8  2  0
  7 12  1  0
  9 10  1  0
 11 10  1  1
 11 13  1  0
 12 11  1  0
 13 15  1  0
 14 13  2  0
 15 16  1  0
 16 17  1  6
 16 27  1  0
 18 17  1  0
 19 18  2  0
 20 19  1  0
 21 20  1  0
 21 26  2  0
 22 23  2  0
 22 21  1  0
 23 24  1  0
 24 25  2  0
 26 25  1  0
 26 18  1  0
 27 28  2  0
 27 29  1  0
M  END
$$$$
