LSW.pdb
     RDKit          3D

 29 30  0  0  1  0  0  0  0  0999 V2000
   28.7578  -17.5360  -15.7574 C   0  0  0  0  0  0  0  0  0  0  0  0
   28.2624  -18.7302  -16.5479 C   0  0  2  0  0  0  0  0  0  0  0  0
   27.9193  -18.2596  -17.9251 C   0  0  0  0  0  0  0  0  0  0  0  0
   27.1490  -19.3573  -15.7892 C   0  0  0  0  0  0  0  0  0  0  0  0
   27.4960  -19.6912  -14.3682 C   0  0  2  0  0  0  0  0  0  0  0  0
   28.6293  -20.6307  -14.4482 N   0  0  0  0  0  0  0  0  0  0  0  0
   26.4433  -20.3696  -13.6304 C   0  0  0  0  0  0  0  0  0  0  0  0
   25.4170  -20.7184  -14.3182 O   0  0  0  0  0  0  0  0  0  0  0  0
   25.4232  -19.7203   -9.8330 O   0  0  0  0  0  0  0  0  0  0  0  0
   25.5269  -21.0902  -10.1073 C   0  0  0  0  0  0  0  0  0  0  0  0
   25.2977  -21.3588  -11.6047 C   0  0  2  0  0  0  0  0  0  0  0  0
   26.3999  -20.6935  -12.2706 N   0  0  0  0  0  0  0  0  0  0  0  0
   24.0031  -20.7050  -11.9316 C   0  0  0  0  0  0  0  0  0  0  0  0
   23.7990  -19.5028  -11.6060 O   0  0  0  0  0  0  0  0  0  0  0  0
   22.9594  -21.3869  -12.6096 N   0  0  0  0  0  0  0  0  0  0  0  0
   21.6991  -20.6984  -12.9795 C   0  0  1  0  0  0  0  0  0  0  0  0
   21.9609  -20.0186  -14.2691 C   0  0  0  0  0  0  0  0  0  0  0  0
   20.8007  -19.3156  -14.8510 C   0  0  0  0  0  0  0  0  0  0  0  0
   20.0106  -18.3675  -14.1697 C   0  0  0  0  0  0  0  0  0  0  0  0
   19.0340  -17.9817  -15.0007 N   0  0  0  0  0  0  0  0  0  0  0  0
   19.1252  -18.6037  -16.1735 C   0  0  0  0  0  0  0  0  0  0  0  0
   18.3545  -18.5085  -17.3285 C   0  0  0  0  0  0  0  0  0  0  0  0
   18.7165  -19.2728  -18.4013 C   0  0  0  0  0  0  0  0  0  0  0  0
   19.8173  -20.1266  -18.3634 C   0  0  0  0  0  0  0  0  0  0  0  0
   20.5496  -20.1906  -17.2047 C   0  0  0  0  0  0  0  0  0  0  0  0
   20.2195  -19.4328  -16.0876 C   0  0  0  0  0  0  0  0  0  0  0  0
   20.5929  -21.6446  -13.0390 C   0  0  0  0  0  0  0  0  0  0  0  0
   20.6589  -22.8135  -13.4678 O   0  0  0  0  0  0  0  0  0  0  0  0
   19.3334  -21.2375  -12.5829 O   0  0  0  0  0  0  0  0  0  0  0  0
  2  1  1  1
  2  4  1  0
  3  2  1  0
  5  4  1  0
  5  7  1  0
  5  6  1  6
  7  8  2  0
  7 12  1  0
  9 10  1  0
 11 10  1  1
 11 13  1  0
 12 11  1  0
 13 15  1  0
 14 13  2  0
 15 16  1  0
 16 17  1  6
 16 27  1  0
 18 17  1  0
 19 18  2  0
 20 19  1  0
 21 20  1  0
 21 26  2  0
 22 23  2  0
 22 21  1  0
 23 24  1  0
 24 25  2  0
 26 25  1  0
 26 18  1  0
 27 28  2  0
 27 29  1  0
M  END
$$$$
