LSW.pdb
     RDKit          3D

 29 30  0  0  1  0  0  0  0  0999 V2000
   23.8967  -16.5725  -17.1348 C   0  0  0  0  0  0  0  0  0  0  0  0
   23.7688  -17.8943  -17.8650 C   0  0  2  0  0  0  0  0  0  0  0  0
   23.2240  -17.6149  -19.2292 C   0  0  0  0  0  0  0  0  0  0  0  0
   22.9536  -18.8097  -17.0248 C   0  0  0  0  0  0  0  0  0  0  0  0
   23.4731  -18.9735  -15.6268 C   0  0  2  0  0  0  0  0  0  0  0  0
   24.8365  -19.5150  -15.7726 N   0  0  0  0  0  0  0  0  0  0  0  0
   22.7325  -19.9225  -14.8120 C   0  0  0  0  0  0  0  0  0  0  0  0
   21.8010  -20.5671  -15.4160 O   0  0  0  0  0  0  0  0  0  0  0  0
   23.7425  -20.3220  -11.1516 O   0  0  0  0  0  0  0  0  0  0  0  0
   22.9643  -21.4521  -11.4339 C   0  0  0  0  0  0  0  0  0  0  0  0
   22.1664  -21.2461  -12.7331 C   0  0  2  0  0  0  0  0  0  0  0  0
   22.9000  -20.2271  -13.4574 N   0  0  0  0  0  0  0  0  0  0  0  0
   20.8344  -20.7430  -12.3054 C   0  0  0  0  0  0  0  0  0  0  0  0
   20.7407  -19.6591  -11.6655 O   0  0  0  0  0  0  0  0  0  0  0  0
   19.6328  -21.4424  -12.5898 N   0  0  0  0  0  0  0  0  0  0  0  0
   18.3136  -20.9185  -12.1605 C   0  0  1  0  0  0  0  0  0  0  0  0
   17.8374  -20.0445  -13.2573 C   0  0  0  0  0  0  0  0  0  0  0  0
   18.4259  -18.6910  -13.2772 C   0  0  0  0  0  0  0  0  0  0  0  0
   18.4449  -17.8064  -12.1797 C   0  0  0  0  0  0  0  0  0  0  0  0
   19.0207  -16.6679  -12.5868 N   0  0  0  0  0  0  0  0  0  0  0  0
   19.3807  -16.7403  -13.8658 C   0  0  0  0  0  0  0  0  0  0  0  0
   20.0176  -15.8228  -14.6963 C   0  0  0  0  0  0  0  0  0  0  0  0
   20.2793  -16.2015  -15.9824 C   0  0  0  0  0  0  0  0  0  0  0  0
   19.9294  -17.4597  -16.4687 C   0  0  0  0  0  0  0  0  0  0  0  0
   19.3022  -18.3337  -15.6167 C   0  0  0  0  0  0  0  0  0  0  0  0
   19.0147  -17.9930  -14.3004 C   0  0  0  0  0  0  0  0  0  0  0  0
   17.3998  -22.0111  -11.8540 C   0  0  0  0  0  0  0  0  0  0  0  0
   17.6555  -23.2260  -11.9688 O   0  0  0  0  0  0  0  0  0  0  0  0
   16.1158  -21.7042  -11.3878 O   0  0  0  0  0  0  0  0  0  0  0  0
  2  1  1  1
  2  4  1  0
  3  2  1  0
  5  4  1  0
  5  7  1  0
  5  6  1  6
  7  8  2  0
  7 12  1  0
  9 10  1  0
 11 10  1  1
 11 13  1  0
 12 11  1  0
 13 15  1  0
 14 13  2  0
 15 16  1  0
 16 17  1  6
 16 27  1  0
 18 17  1  0
 19 18  2  0
 20 19  1  0
 21 20  1  0
 21 26  2  0
 22 23  2  0
 22 21  1  0
 23 24  1  0
 24 25  2  0
 26 25  1  0
 26 18  1  0
 27 28  2  0
 27 29  1  0
M  END
$$$$
