LSW.pdb
     RDKit          3D

 29 30  0  0  1  0  0  0  0  0999 V2000
   28.7809  -18.9817  -17.7306 C   0  0  0  0  0  0  0  0  0  0  0  0
   27.8991  -17.9975  -16.9889 C   0  0  2  0  0  0  0  0  0  0  0  0
   27.8024  -16.7545  -17.8144 C   0  0  0  0  0  0  0  0  0  0  0  0
   28.4548  -17.8174  -15.6224 C   0  0  0  0  0  0  0  0  0  0  0  0
   28.4465  -19.0688  -14.7948 C   0  0  2  0  0  0  0  0  0  0  0  0
   28.2194  -20.1711  -15.7470 N   0  0  0  0  0  0  0  0  0  0  0  0
   27.3771  -19.1391  -13.8127 C   0  0  0  0  0  0  0  0  0  0  0  0
   27.3316  -18.1729  -12.9687 O   0  0  0  0  0  0  0  0  0  0  0  0
   25.0191  -22.3632  -13.4641 O   0  0  0  0  0  0  0  0  0  0  0  0
   24.3451  -21.1815  -13.1293 C   0  0  0  0  0  0  0  0  0  0  0  0
   25.3420  -20.1058  -12.6646 C   0  0  2  0  0  0  0  0  0  0  0  0
   26.3906  -20.1193  -13.6653 N   0  0  0  0  0  0  0  0  0  0  0  0
   25.8516  -20.5781  -11.3503 C   0  0  0  0  0  0  0  0  0  0  0  0
   26.9138  -21.2570  -11.2881 O   0  0  0  0  0  0  0  0  0  0  0  0
   25.1825  -20.2944  -10.1314 N   0  0  0  0  0  0  0  0  0  0  0  0
   25.5995  -20.9255   -8.8559 C   0  0  1  0  0  0  0  0  0  0  0  0
   26.4961  -19.9552   -8.1864 C   0  0  0  0  0  0  0  0  0  0  0  0
   26.9775  -20.3670   -6.8532 C   0  0  0  0  0  0  0  0  0  0  0  0
   26.5286  -21.5050   -6.1526 C   0  0  0  0  0  0  0  0  0  0  0  0
   27.1579  -21.5275   -4.9706 N   0  0  0  0  0  0  0  0  0  0  0  0
   27.9845  -20.4923   -4.8449 C   0  0  0  0  0  0  0  0  0  0  0  0
   28.8440  -20.1203   -3.8153 C   0  0  0  0  0  0  0  0  0  0  0  0
   29.5984  -18.9950   -3.9898 C   0  0  0  0  0  0  0  0  0  0  0  0
   29.5265  -18.2292   -5.1519 C   0  0  0  0  0  0  0  0  0  0  0  0
   28.6656  -18.6311   -6.1421 C   0  0  0  0  0  0  0  0  0  0  0  0
   27.8777  -19.7682   -6.0095 C   0  0  0  0  0  0  0  0  0  0  0  0
   24.4372  -21.2863   -8.0549 C   0  0  0  0  0  0  0  0  0  0  0  0
   24.2970  -22.3469   -7.4145 O   0  0  0  0  0  0  0  0  0  0  0  0
   23.3678  -20.3861   -7.9765 O   0  0  0  0  0  0  0  0  0  0  0  0
  2  1  1  6
  2  4  1  0
  3  2  1  0
  5  4  1  0
  5  7  1  0
  5  6  1  6
  7  8  2  0
  7 12  1  0
  9 10  1  0
 11 10  1  6
 11 13  1  0
 12 11  1  0
 13 15  1  0
 14 13  2  0
 15 16  1  0
 16 17  1  1
 16 27  1  0
 18 17  1  0
 19 18  2  0
 20 19  1  0
 21 20  1  0
 21 26  2  0
 22 23  2  0
 22 21  1  0
 23 24  1  0
 24 25  2  0
 26 25  1  0
 26 18  1  0
 27 28  2  0
 27 29  1  0
M  END
$$$$
