LSW.pdb
     RDKit          3D

 29 30  0  0  1  0  0  0  0  0999 V2000
   23.7501  -20.9258  -18.0210 C   0  0  0  0  0  0  0  0  0  0  0  0
   23.2302  -22.1665  -17.3234 C   0  0  2  0  0  0  0  0  0  0  0  0
   21.7483  -22.0268  -17.1808 C   0  0  0  0  0  0  0  0  0  0  0  0
   23.9832  -22.3325  -16.0530 C   0  0  0  0  0  0  0  0  0  0  0  0
   25.4690  -22.4306  -16.2373 C   0  0  2  0  0  0  0  0  0  0  0  0
   25.7176  -23.8003  -16.7225 N   0  0  0  0  0  0  0  0  0  0  0  0
   26.2430  -22.2736  -15.0169 C   0  0  0  0  0  0  0  0  0  0  0  0
   26.3219  -23.3145  -14.2696 O   0  0  0  0  0  0  0  0  0  0  0  0
   29.2434  -19.5275  -12.4148 O   0  0  0  0  0  0  0  0  0  0  0  0
   28.0950  -19.5816  -13.2154 C   0  0  0  0  0  0  0  0  0  0  0  0
   27.5215  -21.0090  -13.2391 C   0  0  2  0  0  0  0  0  0  0  0  0
   26.9137  -21.1394  -14.5486 N   0  0  0  0  0  0  0  0  0  0  0  0
   26.4922  -21.0411  -12.1669 C   0  0  0  0  0  0  0  0  0  0  0  0
   25.3112  -20.6673  -12.4092 O   0  0  0  0  0  0  0  0  0  0  0  0
   26.7828  -21.4832  -10.8500 N   0  0  0  0  0  0  0  0  0  0  0  0
   25.7646  -21.4263   -9.7734 C   0  0  1  0  0  0  0  0  0  0  0  0
   26.4790  -21.7236   -8.5105 C   0  0  0  0  0  0  0  0  0  0  0  0
   26.9539  -20.5394   -7.7682 C   0  0  0  0  0  0  0  0  0  0  0  0
   26.5848  -19.2094   -8.0552 C   0  0  0  0  0  0  0  0  0  0  0  0
   27.2428  -18.4134   -7.2027 N   0  0  0  0  0  0  0  0  0  0  0  0
   28.0129  -19.1205   -6.3795 C   0  0  0  0  0  0  0  0  0  0  0  0
   28.8474  -18.7299   -5.3364 C   0  0  0  0  0  0  0  0  0  0  0  0
   29.5042  -19.7078   -4.6449 C   0  0  0  0  0  0  0  0  0  0  0  0
   29.3588  -21.0585   -4.9560 C   0  0  0  0  0  0  0  0  0  0  0  0
   28.5267  -21.4002   -5.9923 C   0  0  0  0  0  0  0  0  0  0  0  0
   27.8383  -20.4405   -6.7248 C   0  0  0  0  0  0  0  0  0  0  0  0
   25.0928  -20.1335   -9.7669 C   0  0  0  0  0  0  0  0  0  0  0  0
   23.9624  -19.9045   -9.2932 O   0  0  0  0  0  0  0  0  0  0  0  0
   25.7460  -19.0324  -10.3334 O   0  0  0  0  0  0  0  0  0  0  0  0
  2  1  1  1
  2  4  1  0
  3  2  1  0
  5  4  1  0
  5  7  1  0
  5  6  1  1
  7  8  2  0
  7 12  1  0
  9 10  1  0
 11 10  1  6
 11 13  1  0
 12 11  1  0
 13 15  1  0
 14 13  2  0
 15 16  1  0
 16 17  1  1
 16 27  1  0
 18 17  1  0
 19 18  2  0
 20 19  1  0
 21 20  1  0
 21 26  2  0
 22 23  2  0
 22 21  1  0
 23 24  1  0
 24 25  2  0
 26 25  1  0
 26 18  1  0
 27 28  2  0
 27 29  1  0
M  END
$$$$
