LSW.pdb
     RDKit          3D

 29 30  0  0  1  0  0  0  0  0999 V2000
   32.1165  -24.3784  -11.4348 C   0  0  0  0  0  0  0  0  0  0  0  0
   32.8907  -23.1930  -11.9749 C   0  0  2  0  0  0  0  0  0  0  0  0
   34.0568  -22.9547  -11.0697 C   0  0  0  0  0  0  0  0  0  0  0  0
   31.9488  -22.0527  -12.1199 C   0  0  0  0  0  0  0  0  0  0  0  0
   30.8222  -22.3148  -13.0756 C   0  0  2  0  0  0  0  0  0  0  0  0
   31.4020  -22.1601  -14.4222 N   0  0  0  0  0  0  0  0  0  0  0  0
   29.7193  -21.3722  -12.9857 C   0  0  0  0  0  0  0  0  0  0  0  0
   30.0192  -20.1421  -13.1980 O   0  0  0  0  0  0  0  0  0  0  0  0
   26.0121  -21.8417  -13.9536 O   0  0  0  0  0  0  0  0  0  0  0  0
   26.4746  -20.5612  -13.6233 C   0  0  0  0  0  0  0  0  0  0  0  0
   27.3819  -20.6195  -12.3822 C   0  0  2  0  0  0  0  0  0  0  0  0
   28.3744  -21.6272  -12.6992 N   0  0  0  0  0  0  0  0  0  0  0  0
   26.5036  -21.0665  -11.2691 C   0  0  0  0  0  0  0  0  0  0  0  0
   26.3335  -22.2978  -11.0498 O   0  0  0  0  0  0  0  0  0  0  0  0
   25.8299  -20.1502  -10.4201 N   0  0  0  0  0  0  0  0  0  0  0  0
   24.9494  -20.6178   -9.3223 C   0  0  1  0  0  0  0  0  0  0  0  0
   25.1422  -19.6678   -8.2025 C   0  0  0  0  0  0  0  0  0  0  0  0
   25.6755  -20.2646   -6.9623 C   0  0  0  0  0  0  0  0  0  0  0  0
   25.1776  -21.4352   -6.3548 C   0  0  0  0  0  0  0  0  0  0  0  0
   25.8816  -21.6412   -5.2343 N   0  0  0  0  0  0  0  0  0  0  0  0
   26.8024  -20.6960   -5.0630 C   0  0  0  0  0  0  0  0  0  0  0  0
   27.7594  -20.5123   -4.0692 C   0  0  0  0  0  0  0  0  0  0  0  0
   28.5958  -19.4380   -4.1803 C   0  0  0  0  0  0  0  0  0  0  0  0
   28.5121  -18.5424   -5.2448 C   0  0  0  0  0  0  0  0  0  0  0  0
   27.5538  -18.7601   -6.2026 C   0  0  0  0  0  0  0  0  0  0  0  0
   26.6802  -19.8386   -6.1318 C   0  0  0  0  0  0  0  0  0  0  0  0
   23.5668  -20.7071   -9.7728 C   0  0  0  0  0  0  0  0  0  0  0  0
   23.1032  -20.1815  -10.8041 O   0  0  0  0  0  0  0  0  0  0  0  0
   22.6541  -21.4393   -9.0041 O   0  0  0  0  0  0  0  0  0  0  0  0
  2  1  1  1
  2  4  1  0
  3  2  1  0
  5  4  1  0
  5  7  1  0
  5  6  1  6
  7  8  2  0
  7 12  1  0
  9 10  1  0
 11 10  1  6
 11 13  1  0
 12 11  1  0
 13 15  1  0
 14 13  2  0
 15 16  1  0
 16 17  1  1
 16 27  1  0
 18 17  1  0
 19 18  2  0
 20 19  1  0
 21 20  1  0
 21 26  2  0
 22 23  2  0
 22 21  1  0
 23 24  1  0
 24 25  2  0
 26 25  1  0
 26 18  1  0
 27 28  2  0
 27 29  1  0
M  END
$$$$
