LSW.pdb
     RDKit          3D

 29 30  0  0  1  0  0  0  0  0999 V2000
   23.2832  -19.0643  -18.7094 C   0  0  0  0  0  0  0  0  0  0  0  0
   22.1661  -18.6226  -17.7856 C   0  0  2  0  0  0  0  0  0  0  0  0
   21.2923  -17.6739  -18.5421 C   0  0  0  0  0  0  0  0  0  0  0  0
   22.7790  -18.0790  -16.5457 C   0  0  0  0  0  0  0  0  0  0  0  0
   23.6179  -19.0731  -15.7980 C   0  0  2  0  0  0  0  0  0  0  0  0
   23.1077  -20.3984  -16.1940 N   0  0  0  0  0  0  0  0  0  0  0  0
   23.5025  -18.9973  -14.3509 C   0  0  0  0  0  0  0  0  0  0  0  0
   23.7390  -17.8466  -13.8329 O   0  0  0  0  0  0  0  0  0  0  0  0
   21.9642  -21.9974  -12.1569 O   0  0  0  0  0  0  0  0  0  0  0  0
   21.8518  -20.7125  -11.6101 C   0  0  0  0  0  0  0  0  0  0  0  0
   23.0600  -19.8486  -12.0114 C   0  0  2  0  0  0  0  0  0  0  0  0
   23.1674  -20.0110  -13.4477 N   0  0  0  0  0  0  0  0  0  0  0  0
   24.2277  -20.4522  -11.3168 C   0  0  0  0  0  0  0  0  0  0  0  0
   24.8368  -21.4303  -11.8320 O   0  0  0  0  0  0  0  0  0  0  0  0
   24.7014  -19.9680  -10.0697 N   0  0  0  0  0  0  0  0  0  0  0  0
   25.7848  -20.6621   -9.3323 C   0  0  1  0  0  0  0  0  0  0  0  0
   26.6597  -19.6003   -8.7839 C   0  0  0  0  0  0  0  0  0  0  0  0
   27.8155  -20.0847   -8.0040 C   0  0  0  0  0  0  0  0  0  0  0  0
   28.7232  -21.0711   -8.4404 C   0  0  0  0  0  0  0  0  0  0  0  0
   29.6059  -21.2743   -7.4540 N   0  0  0  0  0  0  0  0  0  0  0  0
   29.3459  -20.4958   -6.4065 C   0  0  0  0  0  0  0  0  0  0  0  0
   29.9941  -20.3516   -5.1833 C   0  0  0  0  0  0  0  0  0  0  0  0
   29.4944  -19.4361   -4.3011 C   0  0  0  0  0  0  0  0  0  0  0  0
   28.3740  -18.6610   -4.5947 C   0  0  0  0  0  0  0  0  0  0  0  0
   27.7647  -18.8354   -5.8119 C   0  0  0  0  0  0  0  0  0  0  0  0
   28.2363  -19.7549   -6.7411 C   0  0  0  0  0  0  0  0  0  0  0  0
   25.2320  -21.5408   -8.3101 C   0  0  0  0  0  0  0  0  0  0  0  0
   24.1160  -21.4136   -7.7688 O   0  0  0  0  0  0  0  0  0  0  0  0
   25.9944  -22.6318   -7.8760 O   0  0  0  0  0  0  0  0  0  0  0  0
  2  1  1  6
  2  4  1  0
  3  2  1  0
  5  4  1  0
  5  7  1  0
  5  6  1  6
  7  8  2  0
  7 12  1  0
  9 10  1  0
 11 10  1  1
 11 13  1  0
 12 11  1  0
 13 15  1  0
 14 13  2  0
 15 16  1  0
 16 17  1  1
 16 27  1  0
 18 17  1  0
 19 18  2  0
 20 19  1  0
 21 20  1  0
 21 26  2  0
 22 23  2  0
 22 21  1  0
 23 24  1  0
 24 25  2  0
 26 25  1  0
 26 18  1  0
 27 28  2  0
 27 29  1  0
M  END
$$$$
