LSW.pdb
     RDKit          3D

 29 30  0  0  1  0  0  0  0  0999 V2000
   28.2577  -21.9262  -18.3827 C   0  0  0  0  0  0  0  0  0  0  0  0
   26.9355  -21.1979  -18.2492 C   0  0  2  0  0  0  0  0  0  0  0  0
   26.5971  -20.6116  -19.5825 C   0  0  0  0  0  0  0  0  0  0  0  0
   27.0544  -20.2243  -17.1328 C   0  0  0  0  0  0  0  0  0  0  0  0
   27.3449  -20.8580  -15.8042 C   0  0  2  0  0  0  0  0  0  0  0  0
   27.0343  -22.2893  -15.9724 N   0  0  0  0  0  0  0  0  0  0  0  0
   26.5179  -20.3776  -14.7096 C   0  0  0  0  0  0  0  0  0  0  0  0
   26.5697  -19.1146  -14.4851 O   0  0  0  0  0  0  0  0  0  0  0  0
   22.5549  -20.6924  -12.0744 O   0  0  0  0  0  0  0  0  0  0  0  0
   23.4564  -21.1573  -13.0407 C   0  0  0  0  0  0  0  0  0  0  0  0
   24.8498  -20.5449  -12.8165 C   0  0  2  0  0  0  0  0  0  0  0  0
   25.6727  -21.1082  -13.8685 N   0  0  0  0  0  0  0  0  0  0  0  0
   25.2858  -21.0291  -11.4802 C   0  0  0  0  0  0  0  0  0  0  0  0
   25.6104  -22.2380  -11.3178 O   0  0  0  0  0  0  0  0  0  0  0  0
   25.3556  -20.1740  -10.3497 N   0  0  0  0  0  0  0  0  0  0  0  0
   25.6618  -20.7027   -8.9985 C   0  0  1  0  0  0  0  0  0  0  0  0
   26.4642  -19.6608   -8.3172 C   0  0  0  0  0  0  0  0  0  0  0  0
   27.7473  -20.1279   -7.7567 C   0  0  0  0  0  0  0  0  0  0  0  0
   28.6261  -21.0242   -8.3984 C   0  0  0  0  0  0  0  0  0  0  0  0
   29.6569  -21.2425   -7.5719 N   0  0  0  0  0  0  0  0  0  0  0  0
   29.5205  -20.5571   -6.4396 C   0  0  0  0  0  0  0  0  0  0  0  0
   30.3385  -20.4604   -5.3177 C   0  0  0  0  0  0  0  0  0  0  0  0
   29.9336  -19.6414   -4.3021 C   0  0  0  0  0  0  0  0  0  0  0  0
   28.7448  -18.9170   -4.3654 C   0  0  0  0  0  0  0  0  0  0  0  0
   27.9675  -19.0417   -5.4895 C   0  0  0  0  0  0  0  0  0  0  0  0
   28.3377  -19.8631   -6.5476 C   0  0  0  0  0  0  0  0  0  0  0  0
   24.4363  -21.0447   -8.2887 C   0  0  0  0  0  0  0  0  0  0  0  0
   23.2822  -20.7253   -8.6362 O   0  0  0  0  0  0  0  0  0  0  0  0
   24.5277  -21.7963   -7.1111 O   0  0  0  0  0  0  0  0  0  0  0  0
  2  1  1  6
  2  4  1  0
  3  2  1  0
  5  4  1  0
  5  7  1  0
  5  6  1  6
  7  8  2  0
  7 12  1  0
  9 10  1  0
 11 10  1  6
 11 13  1  0
 12 11  1  0
 13 15  1  0
 14 13  2  0
 15 16  1  0
 16 17  1  1
 16 27  1  0
 18 17  1  0
 19 18  2  0
 20 19  1  0
 21 20  1  0
 21 26  2  0
 22 23  2  0
 22 21  1  0
 23 24  1  0
 24 25  2  0
 26 25  1  0
 26 18  1  0
 27 28  2  0
 27 29  1  0
M  END
$$$$
