LSW.pdb
     RDKit          3D

 29 30  0  0  1  0  0  0  0  0999 V2000
   27.8733  -24.9123  -18.1648 C   0  0  0  0  0  0  0  0  0  0  0  0
   28.3699  -23.6070  -18.7531 C   0  0  2  0  0  0  0  0  0  0  0  0
   29.5634  -23.9099  -19.6015 C   0  0  0  0  0  0  0  0  0  0  0  0
   28.6029  -22.6553  -17.6358 C   0  0  0  0  0  0  0  0  0  0  0  0
   27.3917  -22.4113  -16.7846 C   0  0  2  0  0  0  0  0  0  0  0  0
   26.5046  -21.5569  -17.5949 N   0  0  0  0  0  0  0  0  0  0  0  0
   27.6533  -21.6889  -15.5507 C   0  0  0  0  0  0  0  0  0  0  0  0
   28.7946  -21.9113  -15.0064 O   0  0  0  0  0  0  0  0  0  0  0  0
   25.0232  -19.0519  -14.0320 O   0  0  0  0  0  0  0  0  0  0  0  0
   26.3567  -18.7906  -13.6912 C   0  0  0  0  0  0  0  0  0  0  0  0
   27.1674  -20.0974  -13.6467 C   0  0  2  0  0  0  0  0  0  0  0  0
   26.8273  -20.7833  -14.8775 N   0  0  0  0  0  0  0  0  0  0  0  0
   26.6588  -20.8399  -12.4633 C   0  0  0  0  0  0  0  0  0  0  0  0
   25.6994  -21.6506  -12.5867 O   0  0  0  0  0  0  0  0  0  0  0  0
   27.2156  -20.6752  -11.1684 N   0  0  0  0  0  0  0  0  0  0  0  0
   26.7049  -21.4396  -10.0047 C   0  0  1  0  0  0  0  0  0  0  0  0
   27.7961  -21.4492   -9.0033 C   0  0  0  0  0  0  0  0  0  0  0  0
   27.6210  -20.5077   -7.8800 C   0  0  0  0  0  0  0  0  0  0  0  0
   26.6982  -19.4421   -7.8607 C   0  0  0  0  0  0  0  0  0  0  0  0
   26.8573  -18.7893   -6.7022 N   0  0  0  0  0  0  0  0  0  0  0  0
   27.8122  -19.3469   -5.9620 C   0  0  0  0  0  0  0  0  0  0  0  0
   28.3025  -19.0276   -4.6991 C   0  0  0  0  0  0  0  0  0  0  0  0
   29.2910  -19.8153   -4.1810 C   0  0  0  0  0  0  0  0  0  0  0  0
   29.8068  -20.9077   -4.8760 C   0  0  0  0  0  0  0  0  0  0  0  0
   29.2955  -21.1870   -6.1185 C   0  0  0  0  0  0  0  0  0  0  0  0
   28.2902  -20.4138   -6.6867 C   0  0  0  0  0  0  0  0  0  0  0  0
   25.4678  -20.8538   -9.5058 C   0  0  0  0  0  0  0  0  0  0  0  0
   25.0814  -19.6865   -9.7128 O   0  0  0  0  0  0  0  0  0  0  0  0
   24.6166  -21.6432   -8.7232 O   0  0  0  0  0  0  0  0  0  0  0  0
  2  1  1  1
  2  4  1  0
  3  2  1  0
  5  4  1  0
  5  7  1  0
  5  6  1  6
  7  8  2  0
  7 12  1  0
  9 10  1  0
 11 10  1  6
 11 13  1  0
 12 11  1  0
 13 15  1  0
 14 13  2  0
 15 16  1  0
 16 17  1  1
 16 27  1  0
 18 17  1  0
 19 18  2  0
 20 19  1  0
 21 20  1  0
 21 26  2  0
 22 23  2  0
 22 21  1  0
 23 24  1  0
 24 25  2  0
 26 25  1  0
 26 18  1  0
 27 28  2  0
 27 29  1  0
M  END
$$$$
