FVP.pdb
     RDKit          3D

 26 27  0  0  1  0  0  0  0  0999 V2000
    5.6409  -18.0022   25.5488 N   0  0  0  0  0  0  0  0  0  0  0  0
    6.1939  -16.6824   25.3335 C   0  0  1  0  0  0  0  0  0  0  0  0
    7.0416  -16.3523   26.5446 C   0  0  0  0  0  0  0  0  0  0  0  0
    7.1637  -14.8734   26.5990 C   0  0  0  0  0  0  0  0  0  0  0  0
    8.3990  -14.2807   26.7191 C   0  0  0  0  0  0  0  0  0  0  0  0
    8.5408  -12.8972   26.7722 C   0  0  0  0  0  0  0  0  0  0  0  0
    7.3966  -12.1412   26.6999 C   0  0  0  0  0  0  0  0  0  0  0  0
    6.1564  -12.7294   26.5795 C   0  0  0  0  0  0  0  0  0  0  0  0
    6.0213  -14.1080   26.5271 C   0  0  0  0  0  0  0  0  0  0  0  0
    7.0421  -16.7320   24.0927 C   0  0  0  0  0  0  0  0  0  0  0  0
    7.5525  -17.8111   23.7075 O   0  0  0  0  0  0  0  0  0  0  0  0
    7.9475  -13.2259   22.0089 C   0  0  0  0  0  0  0  0  0  0  0  0
    7.4199  -14.4358   21.2564 C   0  0  1  0  0  0  0  0  0  0  0  0
    7.8596  -14.4596   19.8153 C   0  0  0  0  0  0  0  0  0  0  0  0
    7.7941  -15.7219   21.9702 C   0  0  2  0  0  0  0  0  0  0  0  0
    7.2824  -15.5630   23.3337 N   0  0  0  0  0  0  0  0  0  0  0  0
    9.2647  -15.8794   21.9800 C   0  0  0  0  0  0  0  0  0  0  0  0
    9.8303  -16.0274   20.8376 O   0  0  0  0  0  0  0  0  0  0  0  0
   10.0397  -15.8702   23.1456 N   0  0  0  0  0  0  0  0  0  0  0  0
    9.6178  -15.6521   24.5039 C   0  0  0  0  0  0  0  0  0  0  0  0
   10.8732  -15.2093   25.2487 C   0  0  0  0  0  0  0  0  0  0  0  0
   11.8584  -14.9541   24.1515 C   0  0  0  0  0  0  0  0  0  0  0  0
   11.4997  -16.0717   23.1574 C   0  0  1  0  0  0  0  0  0  0  0  0
   11.8550  -17.3483   23.7979 C   0  0  0  0  0  0  0  0  0  0  0  0
   13.1919  -17.7143   23.7986 O   0  0  0  0  0  0  0  0  0  0  0  0
   11.0394  -18.1296   24.3429 O   0  0  0  0  0  0  0  0  0  0  0  0
  2 10  1  0
  2  1  1  1
  3  2  1  0
  4  5  2  0
  4  3  1  0
  6  5  1  0
  7  6  2  0
  8  7  1  0
  8  9  2  0
  9  4  1  0
 10 11  2  0
 13 14  1  6
 13 12  1  0
 15 13  1  0
 16 10  1  0
 15 16  1  1
 17 15  1  0
 18 17  2  0
 19 17  1  0
 19 23  1  0
 20 21  1  0
 20 19  1  0
 21 22  1  0
 22 23  1  0
 24 25  1  0
 23 24  1  1
 26 24  2  0
M  END
$$$$
