FVP.pdb
     RDKit          3D

 26 27  0  0  1  0  0  0  0  0999 V2000
    5.7431  -17.4551   25.5905 N   0  0  0  0  0  0  0  0  0  0  0  0
    6.3077  -16.1725   25.2295 C   0  0  1  0  0  0  0  0  0  0  0  0
    7.3815  -15.8561   26.2500 C   0  0  0  0  0  0  0  0  0  0  0  0
    7.2889  -14.4030   26.5411 C   0  0  0  0  0  0  0  0  0  0  0  0
    8.4294  -13.6498   26.6953 C   0  0  0  0  0  0  0  0  0  0  0  0
    8.3702  -12.2864   26.9685 C   0  0  0  0  0  0  0  0  0  0  0  0
    7.1253  -11.7172   27.0791 C   0  0  0  0  0  0  0  0  0  0  0  0
    5.9793  -12.4668   26.9256 C   0  0  0  0  0  0  0  0  0  0  0  0
    6.0444  -13.8245   26.6536 C   0  0  0  0  0  0  0  0  0  0  0  0
    6.9057  -16.2996   23.8555 C   0  0  0  0  0  0  0  0  0  0  0  0
    7.4170  -17.3803   23.4761 O   0  0  0  0  0  0  0  0  0  0  0  0
    8.0653  -12.9474   21.8578 C   0  0  0  0  0  0  0  0  0  0  0  0
    7.4472  -14.0242   20.9821 C   0  0  1  0  0  0  0  0  0  0  0  0
    8.0388  -14.0557   19.5966 C   0  0  0  0  0  0  0  0  0  0  0  0
    7.5359  -15.3831   21.6524 C   0  0  2  0  0  0  0  0  0  0  0  0
    6.9043  -15.2032   22.9621 N   0  0  0  0  0  0  0  0  0  0  0  0
    8.9541  -15.7736   21.8065 C   0  0  0  0  0  0  0  0  0  0  0  0
    9.5467  -15.3636   22.8684 O   0  0  0  0  0  0  0  0  0  0  0  0
    9.6524  -16.5495   20.8739 N   0  0  0  0  0  0  0  0  0  0  0  0
    9.2313  -16.9792   19.5669 C   0  0  0  0  0  0  0  0  0  0  0  0
   10.0936  -18.1959   19.2463 C   0  0  0  0  0  0  0  0  0  0  0  0
   10.7543  -18.5093   20.5520 C   0  0  0  0  0  0  0  0  0  0  0  0
   10.9993  -17.0982   21.1130 C   0  0  1  0  0  0  0  0  0  0  0  0
   11.9972  -16.4559   20.2425 C   0  0  0  0  0  0  0  0  0  0  0  0
   13.3303  -16.5684   20.6048 O   0  0  0  0  0  0  0  0  0  0  0  0
   11.7321  -15.8147   19.1979 O   0  0  0  0  0  0  0  0  0  0  0  0
  2 10  1  0
  2  1  1  1
  3  2  1  0
  4  5  2  0
  4  3  1  0
  6  5  1  0
  7  6  2  0
  8  7  1  0
  8  9  2  0
  9  4  1  0
 10 11  2  0
 13 14  1  6
 13 12  1  0
 15 13  1  0
 16 10  1  0
 15 16  1  1
 17 15  1  0
 18 17  2  0
 19 17  1  0
 19 23  1  0
 20 21  1  0
 20 19  1  0
 21 22  1  0
 22 23  1  0
 24 25  1  0
 23 24  1  6
 26 24  2  0
M  END
$$$$
