FVP.pdb
     RDKit          3D

 26 27  0  0  1  0  0  0  0  0999 V2000
    5.8508  -17.7836   25.8864 N   0  0  0  0  0  0  0  0  0  0  0  0
    6.4102  -16.4951   25.5386 C   0  0  1  0  0  0  0  0  0  0  0  0
    7.1745  -16.0006   26.7494 C   0  0  0  0  0  0  0  0  0  0  0  0
    7.0769  -14.5189   26.7488 C   0  0  0  0  0  0  0  0  0  0  0  0
    8.2137  -13.7463   26.7997 C   0  0  0  0  0  0  0  0  0  0  0  0
    8.1498  -12.3560   26.8003 C   0  0  0  0  0  0  0  0  0  0  0  0
    6.9041  -11.7804   26.7479 C   0  0  0  0  0  0  0  0  0  0  0  0
    5.7618  -12.5492   26.6967 C   0  0  0  0  0  0  0  0  0  0  0  0
    5.8316  -13.9337   26.6964 C   0  0  0  0  0  0  0  0  0  0  0  0
    7.3388  -16.6926   24.3723 C   0  0  0  0  0  0  0  0  0  0  0  0
    7.9943  -17.7547   24.2471 O   0  0  0  0  0  0  0  0  0  0  0  0
    6.8333  -14.5903   20.8454 C   0  0  0  0  0  0  0  0  0  0  0  0
    8.2553  -14.7429   21.3582 C   0  0  1  0  0  0  0  0  0  0  0  0
    8.7613  -13.5000   22.0437 C   0  0  0  0  0  0  0  0  0  0  0  0
    8.3781  -15.9594   22.2574 C   0  0  2  0  0  0  0  0  0  0  0  0
    7.4929  -15.6849   23.3919 N   0  0  0  0  0  0  0  0  0  0  0  0
    9.7779  -16.1068   22.7117 C   0  0  0  0  0  0  0  0  0  0  0  0
   10.0960  -15.4878   23.7899 O   0  0  0  0  0  0  0  0  0  0  0  0
   10.7374  -16.8715   22.0379 N   0  0  0  0  0  0  0  0  0  0  0  0
   10.5976  -17.6128   20.8127 C   0  0  0  0  0  0  0  0  0  0  0  0
   11.7124  -18.6536   20.8429 C   0  0  0  0  0  0  0  0  0  0  0  0
   12.2264  -18.5739   22.2461 C   0  0  0  0  0  0  0  0  0  0  0  0
   12.1156  -17.0651   22.5233 C   0  0  1  0  0  0  0  0  0  0  0  0
   13.0875  -16.3934   21.6456 C   0  0  0  0  0  0  0  0  0  0  0  0
   14.3906  -16.2771   22.1035 O   0  0  0  0  0  0  0  0  0  0  0  0
   12.8255  -15.9185   20.5149 O   0  0  0  0  0  0  0  0  0  0  0  0
  2 10  1  0
  2  1  1  1
  3  2  1  0
  4  5  2  0
  4  3  1  0
  6  5  1  0
  7  6  2  0
  8  7  1  0
  8  9  2  0
  9  4  1  0
 10 11  2  0
 13 14  1  1
 13 12  1  0
 15 13  1  0
 16 10  1  0
 15 16  1  1
 17 15  1  0
 18 17  2  0
 19 17  1  0
 19 23  1  0
 20 21  1  0
 20 19  1  0
 21 22  1  0
 22 23  1  0
 24 25  1  0
 23 24  1  6
 26 24  2  0
M  END
$$$$
