FVP.pdb
     RDKit          3D

 26 27  0  0  1  0  0  0  0  0999 V2000
    5.7123  -17.4643   25.2663 N   0  0  0  0  0  0  0  0  0  0  0  0
    6.3204  -16.1768   25.0080 C   0  0  1  0  0  0  0  0  0  0  0  0
    7.2644  -15.8920   26.1579 C   0  0  0  0  0  0  0  0  0  0  0  0
    7.1081  -14.4561   26.5023 C   0  0  0  0  0  0  0  0  0  0  0  0
    8.2143  -13.6564   26.6718 C   0  0  0  0  0  0  0  0  0  0  0  0
    8.0953  -12.3078   26.9947 C   0  0  0  0  0  0  0  0  0  0  0  0
    6.8268  -11.8018   27.1387 C   0  0  0  0  0  0  0  0  0  0  0  0
    5.7150  -12.5981   26.9701 C   0  0  0  0  0  0  0  0  0  0  0  0
    5.8397  -13.9407   26.6485 C   0  0  0  0  0  0  0  0  0  0  0  0
    7.0792  -16.2741   23.7133 C   0  0  0  0  0  0  0  0  0  0  0  0
    7.5467  -17.3713   23.3248 O   0  0  0  0  0  0  0  0  0  0  0  0
    8.8621  -13.9191   19.7413 C   0  0  0  0  0  0  0  0  0  0  0  0
    8.0558  -13.9131   21.0290 C   0  0  1  0  0  0  0  0  0  0  0  0
    6.6617  -13.3742   20.8380 C   0  0  0  0  0  0  0  0  0  0  0  0
    8.0336  -15.2936   21.6594 C   0  0  2  0  0  0  0  0  0  0  0  0
    7.2818  -15.1305   22.9062 N   0  0  0  0  0  0  0  0  0  0  0  0
    9.4162  -15.7388   21.9384 C   0  0  0  0  0  0  0  0  0  0  0  0
    9.9714  -15.2522   22.9881 O   0  0  0  0  0  0  0  0  0  0  0  0
   10.1194  -16.6421   21.1330 N   0  0  0  0  0  0  0  0  0  0  0  0
    9.7441  -17.1884   19.8559 C   0  0  0  0  0  0  0  0  0  0  0  0
   10.5558  -18.4720   19.7134 C   0  0  0  0  0  0  0  0  0  0  0  0
   11.1306  -18.6752   21.0801 C   0  0  0  0  0  0  0  0  0  0  0  0
   11.4210  -17.2255   21.5042 C   0  0  1  0  0  0  0  0  0  0  0  0
   12.4953  -16.7280   20.6298 C   0  0  0  0  0  0  0  0  0  0  0  0
   12.1229  -16.0392   19.4861 O   0  0  0  0  0  0  0  0  0  0  0  0
   13.7219  -16.8802   20.8417 O   0  0  0  0  0  0  0  0  0  0  0  0
  2 10  1  0
  2  1  1  1
  3  2  1  0
  4  5  2  0
  4  3  1  0
  6  5  1  0
  7  6  2  0
  8  7  1  0
  8  9  2  0
  9  4  1  0
 10 11  2  0
 13 14  1  6
 13 12  1  0
 15 13  1  0
 16 10  1  0
 15 16  1  1
 17 15  1  0
 18 17  2  0
 19 17  1  0
 19 23  1  0
 20 21  1  0
 20 19  1  0
 21 22  1  0
 22 23  1  0
 24 25  1  0
 23 24  1  6
 26 24  2  0
M  END
$$$$
