FVP.pdb
     RDKit          3D

 26 27  0  0  1  0  0  0  0  0999 V2000
    5.7602  -17.9060   25.8793 N   0  0  0  0  0  0  0  0  0  0  0  0
    6.3351  -16.6103   25.5883 C   0  0  1  0  0  0  0  0  0  0  0  0
    7.1415  -16.1986   26.8028 C   0  0  0  0  0  0  0  0  0  0  0  0
    7.1629  -14.7141   26.8266 C   0  0  0  0  0  0  0  0  0  0  0  0
    5.9880  -14.0001   26.7868 C   0  0  0  0  0  0  0  0  0  0  0  0
    5.9805  -12.6085   26.8080 C   0  0  0  0  0  0  0  0  0  0  0  0
    7.1950  -11.9706   26.8704 C   0  0  0  0  0  0  0  0  0  0  0  0
    8.3752  -12.6806   26.9106 C   0  0  0  0  0  0  0  0  0  0  0  0
    8.3766  -14.0666   26.8892 C   0  0  0  0  0  0  0  0  0  0  0  0
    7.2277  -16.7585   24.3871 C   0  0  0  0  0  0  0  0  0  0  0  0
    7.9197  -17.7922   24.2260 O   0  0  0  0  0  0  0  0  0  0  0  0
    6.5306  -14.5653   20.9447 C   0  0  0  0  0  0  0  0  0  0  0  0
    7.9774  -14.7288   21.3788 C   0  0  1  0  0  0  0  0  0  0  0  0
    8.5175  -13.5039   22.0704 C   0  0  0  0  0  0  0  0  0  0  0  0
    8.1473  -15.9689   22.2374 C   0  0  2  0  0  0  0  0  0  0  0  0
    7.3056  -15.7356   23.4136 N   0  0  0  0  0  0  0  0  0  0  0  0
    9.5655  -16.1145   22.6313 C   0  0  0  0  0  0  0  0  0  0  0  0
    9.9118  -15.5554   23.7333 O   0  0  0  0  0  0  0  0  0  0  0  0
   10.5133  -16.8170   21.8781 N   0  0  0  0  0  0  0  0  0  0  0  0
   10.3580  -17.4336   20.5873 C   0  0  0  0  0  0  0  0  0  0  0  0
   11.4640  -18.4810   20.5063 C   0  0  0  0  0  0  0  0  0  0  0  0
   11.9890  -18.5433   21.9063 C   0  0  0  0  0  0  0  0  0  0  0  0
   11.8933  -17.0681   22.3308 C   0  0  1  0  0  0  0  0  0  0  0  0
   12.8645  -16.3213   21.5151 C   0  0  0  0  0  0  0  0  0  0  0  0
   14.1591  -16.2144   21.9986 O   0  0  0  0  0  0  0  0  0  0  0  0
   12.6088  -15.7745   20.4159 O   0  0  0  0  0  0  0  0  0  0  0  0
  2 10  1  0
  2  1  1  1
  3  2  1  0
  4  5  2  0
  4  3  1  0
  6  5  1  0
  7  6  2  0
  8  7  1  0
  8  9  2  0
  9  4  1  0
 10 11  2  0
 13 14  1  1
 13 12  1  0
 15 13  1  0
 16 10  1  0
 15 16  1  1
 17 15  1  0
 18 17  2  0
 19 17  1  0
 19 23  1  0
 20 21  1  0
 20 19  1  0
 21 22  1  0
 22 23  1  0
 24 25  1  0
 23 24  1  6
 26 24  2  0
M  END
$$$$
