FVP.pdb
     RDKit          3D

 26 27  0  0  1  0  0  0  0  0999 V2000
    5.7474  -17.6244   25.5555 N   0  0  0  0  0  0  0  0  0  0  0  0
    6.2753  -16.3063   25.2756 C   0  0  1  0  0  0  0  0  0  0  0  0
    7.2181  -15.9550   26.4080 C   0  0  0  0  0  0  0  0  0  0  0  0
    7.1582  -14.4815   26.5812 C   0  0  0  0  0  0  0  0  0  0  0  0
    5.9529  -13.8537   26.7927 C   0  0  0  0  0  0  0  0  0  0  0  0
    5.8694  -12.4743   26.9581 C   0  0  0  0  0  0  0  0  0  0  0  0
    7.0403  -11.7589   26.9021 C   0  0  0  0  0  0  0  0  0  0  0  0
    8.2507  -12.3823   26.6905 C   0  0  0  0  0  0  0  0  0  0  0  0
    8.3277  -13.7567   26.5265 C   0  0  0  0  0  0  0  0  0  0  0  0
    7.0191  -16.3726   23.9702 C   0  0  0  0  0  0  0  0  0  0  0  0
    7.6403  -17.4104   23.6381 O   0  0  0  0  0  0  0  0  0  0  0  0
    8.0806  -12.9017   22.0605 C   0  0  0  0  0  0  0  0  0  0  0  0
    7.6466  -14.0435   21.1570 C   0  0  1  0  0  0  0  0  0  0  0  0
    8.3494  -14.0278   19.8241 C   0  0  0  0  0  0  0  0  0  0  0  0
    7.8158  -15.3801   21.8558 C   0  0  2  0  0  0  0  0  0  0  0  0
    7.0340  -15.2661   23.0895 N   0  0  0  0  0  0  0  0  0  0  0  0
    9.2447  -15.6073   22.1628 C   0  0  0  0  0  0  0  0  0  0  0  0
    9.6892  -15.0697   23.2399 O   0  0  0  0  0  0  0  0  0  0  0  0
   10.1027  -16.3626   21.3551 N   0  0  0  0  0  0  0  0  0  0  0  0
    9.8742  -16.8686   20.0276 C   0  0  0  0  0  0  0  0  0  0  0  0
   10.8504  -18.0294   19.8660 C   0  0  0  0  0  0  0  0  0  0  0  0
   11.3674  -18.2465   21.2536 C   0  0  0  0  0  0  0  0  0  0  0  0
   11.4450  -16.8021   21.7765 C   0  0  1  0  0  0  0  0  0  0  0  0
   12.4949  -16.1198   21.0030 C   0  0  0  0  0  0  0  0  0  0  0  0
   12.0981  -15.3709   19.9063 O   0  0  0  0  0  0  0  0  0  0  0  0
   13.7212  -16.1650   21.2615 O   0  0  0  0  0  0  0  0  0  0  0  0
  2 10  1  0
  2  1  1  1
  3  2  1  0
  4  5  2  0
  4  3  1  0
  6  5  1  0
  7  6  2  0
  8  7  1  0
  8  9  2  0
  9  4  1  0
 10 11  2  0
 13 14  1  6
 13 12  1  0
 15 13  1  0
 16 10  1  0
 15 16  1  1
 17 15  1  0
 18 17  2  0
 19 17  1  0
 19 23  1  0
 20 21  1  0
 20 19  1  0
 21 22  1  0
 22 23  1  0
 24 25  1  0
 23 24  1  6
 26 24  2  0
M  END
$$$$
