FVP.pdb
     RDKit          3D

 26 27  0  0  1  0  0  0  0  0999 V2000
    5.9212  -17.5920   26.0449 N   0  0  0  0  0  0  0  0  0  0  0  0
    6.4135  -16.3048   25.6033 C   0  0  1  0  0  0  0  0  0  0  0  0
    7.2631  -15.7447   26.7254 C   0  0  0  0  0  0  0  0  0  0  0  0
    7.0024  -14.2839   26.7794 C   0  0  0  0  0  0  0  0  0  0  0  0
    5.7126  -13.8078   26.8170 C   0  0  0  0  0  0  0  0  0  0  0  0
    5.4411  -12.4437   26.8679 C   0  0  0  0  0  0  0  0  0  0  0  0
    6.5133  -11.5857   26.8794 C   0  0  0  0  0  0  0  0  0  0  0  0
    7.8076  -12.0569   26.8419 C   0  0  0  0  0  0  0  0  0  0  0  0
    8.0719  -13.4167   26.7912 C   0  0  0  0  0  0  0  0  0  0  0  0
    7.2456  -16.5252   24.3702 C   0  0  0  0  0  0  0  0  0  0  0  0
    7.8713  -17.5992   24.2022 O   0  0  0  0  0  0  0  0  0  0  0  0
    8.9292  -14.6815   20.0964 C   0  0  0  0  0  0  0  0  0  0  0  0
    8.0124  -14.5922   21.3046 C   0  0  1  0  0  0  0  0  0  0  0  0
    6.5627  -14.4403   20.9228 C   0  0  0  0  0  0  0  0  0  0  0  0
    8.2196  -15.7778   22.2292 C   0  0  2  0  0  0  0  0  0  0  0  0
    7.3404  -15.5259   23.3738 N   0  0  0  0  0  0  0  0  0  0  0  0
    9.6333  -15.8356   22.6602 C   0  0  0  0  0  0  0  0  0  0  0  0
    9.9917  -14.9894   23.5560 O   0  0  0  0  0  0  0  0  0  0  0  0
   10.5646  -16.7476   22.1503 N   0  0  0  0  0  0  0  0  0  0  0  0
   10.3754  -17.7572   21.1427 C   0  0  0  0  0  0  0  0  0  0  0  0
   11.4904  -18.7718   21.3756 C   0  0  0  0  0  0  0  0  0  0  0  0
   12.0606  -18.3664   22.6985 C   0  0  0  0  0  0  0  0  0  0  0  0
   11.9613  -16.8338   22.6134 C   0  0  1  0  0  0  0  0  0  0  0  0
   12.8971  -16.3992   21.5639 C   0  0  0  0  0  0  0  0  0  0  0  0
   14.1683  -16.0132   21.9591 O   0  0  0  0  0  0  0  0  0  0  0  0
   12.6309  -16.3517   20.3393 O   0  0  0  0  0  0  0  0  0  0  0  0
  2 10  1  0
  2  1  1  1
  3  2  1  0
  4  5  2  0
  4  3  1  0
  6  5  1  0
  7  6  2  0
  8  7  1  0
  8  9  2  0
  9  4  1  0
 10 11  2  0
 13 14  1  6
 13 12  1  0
 15 13  1  0
 16 10  1  0
 15 16  1  1
 17 15  1  0
 18 17  2  0
 19 17  1  0
 19 23  1  0
 20 21  1  0
 20 19  1  0
 21 22  1  0
 22 23  1  0
 24 25  1  0
 23 24  1  6
 26 24  2  0
M  END
$$$$
