FVP.pdb
     RDKit          3D

 26 27  0  0  1  0  0  0  0  0999 V2000
    6.4686  -17.7037   20.6185 N   0  0  0  0  0  0  0  0  0  0  0  0
    7.0206  -16.4561   21.1012 C   0  0  1  0  0  0  0  0  0  0  0  0
    6.1476  -15.3438   20.5579 C   0  0  0  0  0  0  0  0  0  0  0  0
    6.7918  -14.0612   20.9387 C   0  0  0  0  0  0  0  0  0  0  0  0
    7.7049  -13.4650   20.1006 C   0  0  0  0  0  0  0  0  0  0  0  0
    8.3228  -12.2632   20.4336 C   0  0  0  0  0  0  0  0  0  0  0  0
    7.9860  -11.6912   21.6358 C   0  0  0  0  0  0  0  0  0  0  0  0
    7.0720  -12.2838   22.4795 C   0  0  0  0  0  0  0  0  0  0  0  0
    6.4597  -13.4810   22.1424 C   0  0  0  0  0  0  0  0  0  0  0  0
    6.9727  -16.4789   22.6041 C   0  0  0  0  0  0  0  0  0  0  0  0
    5.8931  -16.6856   23.2084 O   0  0  0  0  0  0  0  0  0  0  0  0
    6.3511  -18.1363   24.5946 C   0  0  0  0  0  0  0  0  0  0  0  0
    7.6984  -17.7358   25.1713 C   0  0  1  0  0  0  0  0  0  0  0  0
    8.8080  -18.6657   24.7533 C   0  0  0  0  0  0  0  0  0  0  0  0
    8.0263  -16.2941   24.8282 C   0  0  2  0  0  0  0  0  0  0  0  0
    8.1441  -16.2678   23.3681 N   0  0  0  0  0  0  0  0  0  0  0  0
    9.3056  -15.9072   25.4617 C   0  0  0  0  0  0  0  0  0  0  0  0
   10.3737  -16.1870   24.8077 O   0  0  0  0  0  0  0  0  0  0  0  0
    9.3958  -15.2664   26.7029 N   0  0  0  0  0  0  0  0  0  0  0  0
    8.3334  -14.8583   27.5832 C   0  0  0  0  0  0  0  0  0  0  0  0
    8.9365  -13.7678   28.4629 C   0  0  0  0  0  0  0  0  0  0  0  0
   10.2435  -13.4667   27.7990 C   0  0  0  0  0  0  0  0  0  0  0  0
   10.6708  -14.8661   27.3246 C   0  0  1  0  0  0  0  0  0  0  0  0
   10.9478  -15.6636   28.5303 C   0  0  0  0  0  0  0  0  0  0  0  0
   10.0495  -16.6684   28.8538 O   0  0  0  0  0  0  0  0  0  0  0  0
   11.9351  -15.5025   29.2866 O   0  0  0  0  0  0  0  0  0  0  0  0
  2 10  1  0
  2  1  1  6
  3  2  1  0
  4  5  2  0
  4  3  1  0
  6  5  1  0
  7  6  2  0
  8  7  1  0
  8  9  2  0
  9  4  1  0
 10 11  2  0
 13 14  1  6
 13 12  1  0
 15 13  1  0
 16 10  1  0
 15 16  1  6
 17 15  1  0
 18 17  2  0
 19 17  1  0
 19 23  1  0
 20 21  1  0
 20 19  1  0
 21 22  1  0
 22 23  1  0
 24 25  1  0
 23 24  1  1
 26 24  2  0
M  END
$$$$
