FVP.pdb
     RDKit          3D

 26 27  0  0  1  0  0  0  0  0999 V2000
    7.5780  -16.8203   26.2252 N   0  0  0  0  0  0  0  0  0  0  0  0
    7.0658  -16.0384   25.1205 C   0  0  1  0  0  0  0  0  0  0  0  0
    7.9939  -14.8541   24.9458 C   0  0  0  0  0  0  0  0  0  0  0  0
    7.5889  -13.8341   25.9461 C   0  0  0  0  0  0  0  0  0  0  0  0
    8.5037  -13.3405   26.8468 C   0  0  0  0  0  0  0  0  0  0  0  0
    8.1498  -12.3844   27.7942 C   0  0  0  0  0  0  0  0  0  0  0  0
    6.8473  -11.9491   27.7971 C   0  0  0  0  0  0  0  0  0  0  0  0
    5.9265  -12.4399   26.8972 C   0  0  0  0  0  0  0  0  0  0  0  0
    6.2847  -13.3923   25.9558 C   0  0  0  0  0  0  0  0  0  0  0  0
    7.0802  -16.9064   23.8925 C   0  0  0  0  0  0  0  0  0  0  0  0
    7.8746  -17.8725   23.7993 O   0  0  0  0  0  0  0  0  0  0  0  0
    5.0018  -18.0063   19.5524 C   0  0  0  0  0  0  0  0  0  0  0  0
    4.9583  -17.3801   20.9360 C   0  0  1  0  0  0  0  0  0  0  0  0
    3.8531  -17.9419   21.7925 C   0  0  0  0  0  0  0  0  0  0  0  0
    6.3057  -17.4969   21.6248 C   0  0  2  0  0  0  0  0  0  0  0  0
    6.1982  -16.6516   22.8166 N   0  0  0  0  0  0  0  0  0  0  0  0
    7.3714  -17.0003   20.7275 C   0  0  0  0  0  0  0  0  0  0  0  0
    7.9271  -17.8707   19.9655 O   0  0  0  0  0  0  0  0  0  0  0  0
    7.7827  -15.6634   20.6745 N   0  0  0  0  0  0  0  0  0  0  0  0
    7.4217  -14.5767   21.5458 C   0  0  0  0  0  0  0  0  0  0  0  0
    7.6849  -13.3096   20.7385 C   0  0  0  0  0  0  0  0  0  0  0  0
    7.9239  -13.8218   19.3528 C   0  0  0  0  0  0  0  0  0  0  0  0
    8.6853  -15.1269   19.6402 C   0  0  1  0  0  0  0  0  0  0  0  0
    9.9866  -14.7488   20.2145 C   0  0  0  0  0  0  0  0  0  0  0  0
   10.2417  -15.1233   21.5245 O   0  0  0  0  0  0  0  0  0  0  0  0
   10.8818  -14.1135   19.6081 O   0  0  0  0  0  0  0  0  0  0  0  0
  2 10  1  0
  2  1  1  1
  3  2  1  0
  4  5  2  0
  4  3  1  0
  6  5  1  0
  7  6  2  0
  8  7  1  0
  8  9  2  0
  9  4  1  0
 10 11  2  0
 13 14  1  1
 13 12  1  0
 15 13  1  0
 16 10  1  0
 15 16  1  1
 17 15  1  0
 18 17  2  0
 19 17  1  0
 19 23  1  0
 20 21  1  0
 20 19  1  0
 21 22  1  0
 22 23  1  0
 24 25  1  0
 23 24  1  1
 26 24  2  0
M  END
$$$$
