HLQ.pdb
     RDKit          3D

 28 28  0  0  1  0  0  0  0  0999 V2000
    7.4228  -16.4986   21.0426 N   0  0  0  0  0  0  0  0  0  0  0  0
    8.8424  -16.4263   21.2888 C   0  0  1  0  0  0  0  0  0  0  0  0
    9.5779  -15.7453   20.1549 C   0  0  0  0  0  0  0  0  0  0  0  0
    8.6990  -14.6943   19.6034 C   0  0  0  0  0  0  0  0  0  0  0  0
    7.3255  -14.6811   19.6992 C   0  0  0  0  0  0  0  0  0  0  0  0
    6.9263  -13.5658   19.0738 N   0  0  0  0  0  0  0  0  0  0  0  0
    8.0132  -12.9220   18.6134 C   0  0  0  0  0  0  0  0  0  0  0  0
    9.1361  -13.6209   18.9396 N   0  0  0  0  0  0  0  0  0  0  0  0
    9.0378  -15.5549   22.4957 C   0  0  0  0  0  0  0  0  0  0  0  0
   10.1711  -15.0304   22.7604 O   0  0  0  0  0  0  0  0  0  0  0  0
    6.1433  -11.8529   26.5431 C   0  0  0  0  0  0  0  0  0  0  0  0
    7.3166  -12.5225   25.9257 C   0  0  1  0  0  0  0  0  0  0  0  0
    8.2898  -13.0646   26.9635 C   0  0  0  0  0  0  0  0  0  0  0  0
    7.0221  -13.5861   24.9130 C   0  0  0  0  0  0  0  0  0  0  0  0
    8.1927  -14.4061   24.5157 C   0  0  2  0  0  0  0  0  0  0  0  0
    7.9859  -15.2740   23.3917 N   0  0  0  0  0  0  0  0  0  0  0  0
    8.7327  -15.2076   25.6696 C   0  0  0  0  0  0  0  0  0  0  0  0
    7.9980  -15.8404   26.4464 O   0  0  0  0  0  0  0  0  0  0  0  0
   11.1012  -19.8442   27.5419 N   0  0  0  0  0  0  0  0  0  0  0  0
   10.3174  -19.1594   28.4991 C   0  0  0  0  0  0  0  0  0  0  0  0
   10.2321  -19.6338   29.6487 O   0  0  0  0  0  0  0  0  0  0  0  0
    9.6301  -17.9296   28.1385 C   0  0  0  0  0  0  0  0  0  0  0  0
    9.7619  -17.4922   26.7248 C   0  0  0  0  0  0  0  0  0  0  0  0
   10.7854  -16.4297   26.4674 C   0  0  2  0  0  0  0  0  0  0  0  0
   10.1309  -15.2474   25.8854 N   0  0  0  0  0  0  0  0  0  0  0  0
   11.8438  -16.8407   25.5204 C   0  0  0  0  0  0  0  0  0  0  0  0
   11.7867  -18.0052   24.7707 O   0  0  0  0  0  0  0  0  0  0  0  0
   12.8515  -16.1144   25.3731 O   0  0  0  0  0  0  0  0  0  0  0  0
  2  1  1  6
  3  4  1  0
  3  2  1  0
  4  5  2  0
  6  5  1  0
  7  6  1  0
  8  7  2  0
  8  4  1  0
  9  2  1  0
  9 16  1  0
 10  9  2  0
 12 11  1  1
 12 14  1  0
 13 12  1  0
 15 16  1  0
 15 14  1  1
 17 15  1  0
 18 17  2  0
 19 20  1  0
 20 21  2  0
 20 22  1  0
 22 23  1  0
 24 23  1  6
 24 26  1  0
 24 25  1  0
 25 17  1  0
 26 27  1  0
 28 26  2  0
M  END
$$$$
