HLQ.pdb
     RDKit          3D

 28 28  0  0  1  0  0  0  0  0999 V2000
    7.5420  -15.6937   21.4030 N   0  0  0  0  0  0  0  0  0  0  0  0
    8.7847  -14.9881   21.5999 C   0  0  1  0  0  0  0  0  0  0  0  0
    8.7523  -13.6056   20.9850 C   0  0  0  0  0  0  0  0  0  0  0  0
    8.5381  -13.7547   19.5314 C   0  0  0  0  0  0  0  0  0  0  0  0
    7.6111  -14.5906   18.9500 C   0  0  0  0  0  0  0  0  0  0  0  0
    7.7457  -14.4222   17.6280 N   0  0  0  0  0  0  0  0  0  0  0  0
    8.7170  -13.5187   17.4092 C   0  0  0  0  0  0  0  0  0  0  0  0
    9.2248  -13.0900   18.5983 N   0  0  0  0  0  0  0  0  0  0  0  0
    8.9472  -14.7832   23.0784 C   0  0  0  0  0  0  0  0  0  0  0  0
   10.0424  -14.3533   23.5735 O   0  0  0  0  0  0  0  0  0  0  0  0
    5.6439  -12.1862   26.4028 C   0  0  0  0  0  0  0  0  0  0  0  0
    6.8827  -12.8271   25.8923 C   0  0  1  0  0  0  0  0  0  0  0  0
    8.1412  -12.0882   26.3260 C   0  0  0  0  0  0  0  0  0  0  0  0
    7.0412  -14.2904   26.1710 C   0  0  0  0  0  0  0  0  0  0  0  0
    8.1228  -14.9549   25.4032 C   0  0  2  0  0  0  0  0  0  0  0  0
    7.9046  -15.0539   23.9884 N   0  0  0  0  0  0  0  0  0  0  0  0
    8.4435  -16.3188   25.9532 C   0  0  0  0  0  0  0  0  0  0  0  0
    7.8076  -16.8283   26.8911 O   0  0  0  0  0  0  0  0  0  0  0  0
   11.6637  -19.0735   21.6556 N   0  0  0  0  0  0  0  0  0  0  0  0
   11.0179  -19.9062   22.5984 C   0  0  0  0  0  0  0  0  0  0  0  0
   11.2043  -21.1370   22.5327 O   0  0  0  0  0  0  0  0  0  0  0  0
   10.1568  -19.3280   23.6178 C   0  0  0  0  0  0  0  0  0  0  0  0
   10.7834  -19.0712   24.9403 C   0  0  0  0  0  0  0  0  0  0  0  0
    9.9244  -18.3559   25.9370 C   0  0  2  0  0  0  0  0  0  0  0  0
    9.5095  -17.0566   25.3854 N   0  0  0  0  0  0  0  0  0  0  0  0
   10.6072  -18.0769   27.2184 C   0  0  0  0  0  0  0  0  0  0  0  0
   11.2346  -16.8739   27.5027 O   0  0  0  0  0  0  0  0  0  0  0  0
   10.6319  -18.9585   28.1054 O   0  0  0  0  0  0  0  0  0  0  0  0
  2  1  1  1
  3  4  1  0
  3  2  1  0
  4  5  2  0
  6  5  1  0
  7  6  1  0
  8  7  2  0
  8  4  1  0
  9  2  1  0
  9 16  1  0
 10  9  2  0
 12 11  1  1
 12 14  1  0
 13 12  1  0
 15 16  1  0
 15 14  1  1
 17 15  1  0
 18 17  2  0
 19 20  1  0
 20 21  2  0
 20 22  1  0
 22 23  1  0
 24 23  1  6
 24 26  1  0
 24 25  1  0
 25 17  1  0
 26 27  1  0
 28 26  2  0
M  END
$$$$
