HLQ.pdb
     RDKit          3D

 28 28  0  0  1  0  0  0  0  0999 V2000
    9.6499  -12.8061   19.7737 N   0  0  0  0  0  0  0  0  0  0  0  0
    8.4714  -13.5127   20.2128 C   0  0  1  0  0  0  0  0  0  0  0  0
    8.4030  -14.9099   19.6353 C   0  0  0  0  0  0  0  0  0  0  0  0
    8.1609  -14.7950   18.1830 C   0  0  0  0  0  0  0  0  0  0  0  0
    8.1818  -13.6183   17.4683 C   0  0  0  0  0  0  0  0  0  0  0  0
    7.9156  -13.9565   16.1998 N   0  0  0  0  0  0  0  0  0  0  0  0
    7.7387  -15.2880   16.1410 C   0  0  0  0  0  0  0  0  0  0  0  0
    7.8903  -15.8289   17.3819 N   0  0  0  0  0  0  0  0  0  0  0  0
    8.5857  -13.6813   21.7003 C   0  0  0  0  0  0  0  0  0  0  0  0
    9.6630  -14.1021   22.2407 O   0  0  0  0  0  0  0  0  0  0  0  0
    8.1890  -12.3737   26.8590 C   0  0  0  0  0  0  0  0  0  0  0  0
    6.9003  -12.8405   26.2868 C   0  0  1  0  0  0  0  0  0  0  0  0
    5.6961  -12.2367   26.9963 C   0  0  0  0  0  0  0  0  0  0  0  0
    6.7342  -12.6915   24.8056 C   0  0  0  0  0  0  0  0  0  0  0  0
    7.6725  -13.5021   23.9912 C   0  0  2  0  0  0  0  0  0  0  0  0
    7.5157  -13.3852   22.5695 N   0  0  0  0  0  0  0  0  0  0  0  0
    7.6368  -14.9564   24.3772 C   0  0  0  0  0  0  0  0  0  0  0  0
    6.6411  -15.6748   24.1867 O   0  0  0  0  0  0  0  0  0  0  0  0
   10.9140  -19.1771   22.2074 N   0  0  0  0  0  0  0  0  0  0  0  0
   11.6216  -18.2001   22.9451 C   0  0  0  0  0  0  0  0  0  0  0  0
   12.8252  -18.0105   22.6816 O   0  0  0  0  0  0  0  0  0  0  0  0
   10.9495  -17.4396   23.9866 C   0  0  0  0  0  0  0  0  0  0  0  0
    9.4972  -17.7013   24.1594 C   0  0  0  0  0  0  0  0  0  0  0  0
    8.8371  -16.9738   25.2899 C   0  0  2  0  0  0  0  0  0  0  0  0
    8.7777  -15.5364   24.9812 N   0  0  0  0  0  0  0  0  0  0  0  0
    9.5508  -17.1042   26.5781 C   0  0  0  0  0  0  0  0  0  0  0  0
   10.1049  -16.0295   27.2558 O   0  0  0  0  0  0  0  0  0  0  0  0
    9.6723  -18.2342   27.1007 O   0  0  0  0  0  0  0  0  0  0  0  0
  2  1  1  6
  3  4  1  0
  3  2  1  0
  4  5  2  0
  6  5  1  0
  7  6  1  0
  8  7  2  0
  8  4  1  0
  9  2  1  0
  9 16  1  0
 10  9  2  0
 12 11  1  1
 12 14  1  0
 13 12  1  0
 15 16  1  0
 15 14  1  1
 17 15  1  0
 18 17  2  0
 19 20  1  0
 20 21  2  0
 20 22  1  0
 22 23  1  0
 24 23  1  6
 24 26  1  0
 24 25  1  0
 25 17  1  0
 26 27  1  0
 28 26  2  0
M  END
$$$$
