HLQ.pdb
     RDKit          3D

 28 28  0  0  1  0  0  0  0  0999 V2000
   10.0965  -15.1333   20.7670 N   0  0  0  0  0  0  0  0  0  0  0  0
    8.8030  -15.3610   21.3637 C   0  0  1  0  0  0  0  0  0  0  0  0
    8.2962  -16.7615   21.0952 C   0  0  0  0  0  0  0  0  0  0  0  0
    7.9379  -16.8538   19.6654 C   0  0  0  0  0  0  0  0  0  0  0  0
    8.0257  -15.8204   18.7596 C   0  0  0  0  0  0  0  0  0  0  0  0
    7.6094  -16.3234   17.5900 N   0  0  0  0  0  0  0  0  0  0  0  0
    7.2799  -17.6140   17.7732 C   0  0  0  0  0  0  0  0  0  0  0  0
    7.4817  -17.9615   19.0748 N   0  0  0  0  0  0  0  0  0  0  0  0
    8.9784  -15.2589   22.8513 C   0  0  0  0  0  0  0  0  0  0  0  0
   10.1010  -15.5053   23.4067 O   0  0  0  0  0  0  0  0  0  0  0  0
    5.4787  -12.2382   26.0850 C   0  0  0  0  0  0  0  0  0  0  0  0
    6.7512  -12.8219   25.5888 C   0  0  1  0  0  0  0  0  0  0  0  0
    7.9666  -12.0022   25.9999 C   0  0  0  0  0  0  0  0  0  0  0  0
    6.9919  -14.2660   25.9056 C   0  0  0  0  0  0  0  0  0  0  0  0
    8.0868  -14.8977   25.1292 C   0  0  2  0  0  0  0  0  0  0  0  0
    7.9185  -14.8880   23.7041 N   0  0  0  0  0  0  0  0  0  0  0  0
    8.3589  -16.3052   25.5878 C   0  0  0  0  0  0  0  0  0  0  0  0
    7.5669  -17.2404   25.3829 O   0  0  0  0  0  0  0  0  0  0  0  0
   13.4258  -19.4706   24.9401 N   0  0  0  0  0  0  0  0  0  0  0  0
   12.4563  -18.8257   24.1379 C   0  0  0  0  0  0  0  0  0  0  0  0
   12.6690  -18.7221   22.9139 O   0  0  0  0  0  0  0  0  0  0  0  0
   11.2415  -18.2983   24.7388 C   0  0  0  0  0  0  0  0  0  0  0  0
   11.1227  -18.4374   26.2132 C   0  0  0  0  0  0  0  0  0  0  0  0
    9.8497  -17.9242   26.8125 C   0  0  2  0  0  0  0  0  0  0  0  0
    9.5615  -16.5831   26.2802 N   0  0  0  0  0  0  0  0  0  0  0  0
    9.8944  -17.7980   28.2849 C   0  0  0  0  0  0  0  0  0  0  0  0
    9.7576  -16.5906   28.9519 O   0  0  0  0  0  0  0  0  0  0  0  0
   10.0638  -18.8216   28.9838 O   0  0  0  0  0  0  0  0  0  0  0  0
  2  1  1  6
  3  4  1  0
  3  2  1  0
  4  5  2  0
  6  5  1  0
  7  6  1  0
  8  7  2  0
  8  4  1  0
  9  2  1  0
  9 16  1  0
 10  9  2  0
 12 11  1  1
 12 14  1  0
 13 12  1  0
 15 16  1  0
 15 14  1  1
 17 15  1  0
 18 17  2  0
 19 20  1  0
 20 21  2  0
 20 22  1  0
 22 23  1  0
 24 23  1  6
 24 26  1  0
 24 25  1  0
 25 17  1  0
 26 27  1  0
 28 26  2  0
M  END
$$$$
