HLQ.pdb
     RDKit          3D

 28 28  0  0  1  0  0  0  0  0999 V2000
    9.7514  -16.0164   20.2253 N   0  0  0  0  0  0  0  0  0  0  0  0
    8.4968  -16.0252   20.9373 C   0  0  1  0  0  0  0  0  0  0  0  0
    7.9765  -17.4308   21.1468 C   0  0  0  0  0  0  0  0  0  0  0  0
    7.3943  -17.8994   19.8731 C   0  0  0  0  0  0  0  0  0  0  0  0
    8.0743  -17.9927   18.6794 C   0  0  0  0  0  0  0  0  0  0  0  0
    7.1874  -18.4557   17.7888 N   0  0  0  0  0  0  0  0  0  0  0  0
    6.0108  -18.6386   18.4133 C   0  0  0  0  0  0  0  0  0  0  0  0
    6.1263  -18.2924   19.7258 N   0  0  0  0  0  0  0  0  0  0  0  0
    8.7621  -15.4701   22.3069 C   0  0  0  0  0  0  0  0  0  0  0  0
    9.9093  -15.5767   22.8565 O   0  0  0  0  0  0  0  0  0  0  0  0
    8.5387  -12.0734   26.5339 C   0  0  0  0  0  0  0  0  0  0  0  0
    7.3317  -12.9130   26.3237 C   0  0  1  0  0  0  0  0  0  0  0  0
    6.0752  -12.2821   26.9078 C   0  0  0  0  0  0  0  0  0  0  0  0
    7.0620  -13.3549   24.9180 C   0  0  0  0  0  0  0  0  0  0  0  0
    8.0268  -14.3469   24.3833 C   0  0  2  0  0  0  0  0  0  0  0  0
    7.7636  -14.8075   23.0500 N   0  0  0  0  0  0  0  0  0  0  0  0
    8.1760  -15.5326   25.2983 C   0  0  0  0  0  0  0  0  0  0  0  0
    7.2493  -16.3315   25.5144 O   0  0  0  0  0  0  0  0  0  0  0  0
   10.3786  -21.2960   25.7409 N   0  0  0  0  0  0  0  0  0  0  0  0
   11.2499  -20.2094   25.4970 C   0  0  0  0  0  0  0  0  0  0  0  0
   12.0232  -20.2731   24.5213 O   0  0  0  0  0  0  0  0  0  0  0  0
   11.2356  -19.0482   26.3724 C   0  0  0  0  0  0  0  0  0  0  0  0
   10.7360  -17.7817   25.7776 C   0  0  0  0  0  0  0  0  0  0  0  0
    9.7269  -17.0352   26.5946 C   0  0  2  0  0  0  0  0  0  0  0  0
    9.4171  -15.7536   25.9417 N   0  0  0  0  0  0  0  0  0  0  0  0
   10.1881  -16.7164   27.9626 C   0  0  0  0  0  0  0  0  0  0  0  0
   10.2185  -17.6431   28.9931 O   0  0  0  0  0  0  0  0  0  0  0  0
   10.5749  -15.5562   28.2251 O   0  0  0  0  0  0  0  0  0  0  0  0
  2  1  1  6
  3  4  1  0
  3  2  1  0
  4  5  2  0
  6  5  1  0
  7  6  1  0
  8  7  2  0
  8  4  1  0
  9  2  1  0
  9 16  1  0
 10  9  2  0
 12 11  1  6
 12 14  1  0
 13 12  1  0
 15 16  1  0
 15 14  1  1
 17 15  1  0
 18 17  2  0
 19 20  1  0
 20 21  2  0
 20 22  1  0
 22 23  1  0
 24 23  1  6
 24 26  1  0
 24 25  1  0
 25 17  1  0
 26 27  1  0
 28 26  2  0
M  END
$$$$
