HLQ.pdb
     RDKit          3D

 28 28  0  0  1  0  0  0  0  0999 V2000
   10.2406  -13.9305   20.8828 N   0  0  0  0  0  0  0  0  0  0  0  0
    8.8572  -14.0578   21.2715 C   0  0  1  0  0  0  0  0  0  0  0  0
    8.1749  -15.2072   20.5618 C   0  0  0  0  0  0  0  0  0  0  0  0
    7.8850  -14.7844   19.1769 C   0  0  0  0  0  0  0  0  0  0  0  0
    8.2272  -13.5663   18.6336 C   0  0  0  0  0  0  0  0  0  0  0  0
    7.7841  -13.5925   17.3698 N   0  0  0  0  0  0  0  0  0  0  0  0
    7.1939  -14.7801   17.1487 C   0  0  0  0  0  0  0  0  0  0  0  0
    7.2500  -15.5406   18.2774 N   0  0  0  0  0  0  0  0  0  0  0  0
    8.8386  -14.4000   22.7333 C   0  0  0  0  0  0  0  0  0  0  0  0
    9.8289  -14.9793   23.2930 O   0  0  0  0  0  0  0  0  0  0  0  0
    5.5428  -11.6095   26.4190 C   0  0  0  0  0  0  0  0  0  0  0  0
    6.7339  -12.2849   25.8434 C   0  0  1  0  0  0  0  0  0  0  0  0
    8.0290  -11.8566   26.5196 C   0  0  0  0  0  0  0  0  0  0  0  0
    6.6814  -13.7799   25.7656 C   0  0  0  0  0  0  0  0  0  0  0  0
    7.7626  -14.3979   24.9595 C   0  0  2  0  0  0  0  0  0  0  0  0
    7.7332  -14.1006   23.5559 N   0  0  0  0  0  0  0  0  0  0  0  0
    7.8207  -15.8897   25.1504 C   0  0  0  0  0  0  0  0  0  0  0  0
    6.8950  -16.6444   24.8083 O   0  0  0  0  0  0  0  0  0  0  0  0
   11.4824  -19.7037   22.7804 N   0  0  0  0  0  0  0  0  0  0  0  0
   12.1294  -18.9733   23.8038 C   0  0  0  0  0  0  0  0  0  0  0  0
   13.3664  -18.8310   23.7435 O   0  0  0  0  0  0  0  0  0  0  0  0
   11.3583  -18.4054   24.8982 C   0  0  0  0  0  0  0  0  0  0  0  0
    9.8802  -18.4940   24.7771 C   0  0  0  0  0  0  0  0  0  0  0  0
    9.1002  -17.9185   25.9188 C   0  0  2  0  0  0  0  0  0  0  0  0
    8.9713  -16.4636   25.7420 N   0  0  0  0  0  0  0  0  0  0  0  0
    9.7316  -18.1335   27.2383 C   0  0  0  0  0  0  0  0  0  0  0  0
   10.3053  -17.1161   27.9847 O   0  0  0  0  0  0  0  0  0  0  0  0
    9.7604  -19.2857   27.7245 O   0  0  0  0  0  0  0  0  0  0  0  0
  2  1  1  6
  3  4  1  0
  3  2  1  0
  4  5  2  0
  6  5  1  0
  7  6  1  0
  8  7  2  0
  8  4  1  0
  9  2  1  0
  9 16  1  0
 10  9  2  0
 12 11  1  1
 12 14  1  0
 13 12  1  0
 15 16  1  0
 15 14  1  1
 17 15  1  0
 18 17  2  0
 19 20  1  0
 20 21  2  0
 20 22  1  0
 22 23  1  0
 24 23  1  6
 24 26  1  0
 24 25  1  0
 25 17  1  0
 26 27  1  0
 28 26  2  0
M  END
$$$$
