HLQ.pdb
     RDKit          3D

 28 28  0  0  1  0  0  0  0  0999 V2000
   10.1121  -13.8821   20.8257 N   0  0  0  0  0  0  0  0  0  0  0  0
    8.7850  -14.1865   21.3025 C   0  0  1  0  0  0  0  0  0  0  0  0
    8.2033  -15.4025   20.6144 C   0  0  0  0  0  0  0  0  0  0  0  0
    7.7838  -15.0043   19.2556 C   0  0  0  0  0  0  0  0  0  0  0  0
    8.0476  -13.7856   18.6716 C   0  0  0  0  0  0  0  0  0  0  0  0
    7.4971  -13.8382   17.4516 N   0  0  0  0  0  0  0  0  0  0  0  0
    6.9191  -15.0420   17.2955 C   0  0  0  0  0  0  0  0  0  0  0  0
    7.0917  -15.7865   18.4231 N   0  0  0  0  0  0  0  0  0  0  0  0
    8.9092  -14.5483   22.7543 C   0  0  0  0  0  0  0  0  0  0  0  0
    9.9496  -15.1332   23.2070 O   0  0  0  0  0  0  0  0  0  0  0  0
    5.7043  -12.0384   26.8190 C   0  0  0  0  0  0  0  0  0  0  0  0
    6.8757  -12.5644   26.0726 C   0  0  1  0  0  0  0  0  0  0  0  0
    8.1920  -11.9854   26.5726 C   0  0  0  0  0  0  0  0  0  0  0  0
    6.9906  -14.0547   25.9742 C   0  0  0  0  0  0  0  0  0  0  0  0
    8.0729  -14.5362   25.0812 C   0  0  2  0  0  0  0  0  0  0  0  0
    7.8891  -14.2618   23.6847 N   0  0  0  0  0  0  0  0  0  0  0  0
    8.3409  -16.0055   25.2678 C   0  0  0  0  0  0  0  0  0  0  0  0
    7.5643  -16.8844   24.8579 O   0  0  0  0  0  0  0  0  0  0  0  0
   10.7385  -20.1893   23.1900 N   0  0  0  0  0  0  0  0  0  0  0  0
   11.3615  -20.5643   24.4027 C   0  0  0  0  0  0  0  0  0  0  0  0
   11.7781  -21.7332   24.5220 O   0  0  0  0  0  0  0  0  0  0  0  0
   11.5069  -19.5990   25.4806 C   0  0  0  0  0  0  0  0  0  0  0  0
   10.9405  -18.2477   25.2347 C   0  0  0  0  0  0  0  0  0  0  0  0
    9.8324  -17.8320   26.1525 C   0  0  2  0  0  0  0  0  0  0  0  0
    9.5215  -16.4105   25.9352 N   0  0  0  0  0  0  0  0  0  0  0  0
   10.1601  -17.9826   27.5864 C   0  0  0  0  0  0  0  0  0  0  0  0
   10.1488  -19.2006   28.2480 O   0  0  0  0  0  0  0  0  0  0  0  0
   10.4659  -16.9709   28.2555 O   0  0  0  0  0  0  0  0  0  0  0  0
  2  1  1  6
  3  4  1  0
  3  2  1  0
  4  5  2  0
  6  5  1  0
  7  6  1  0
  8  7  2  0
  8  4  1  0
  9  2  1  0
  9 16  1  0
 10  9  2  0
 12 11  1  1
 12 14  1  0
 13 12  1  0
 15 16  1  0
 15 14  1  1
 17 15  1  0
 18 17  2  0
 19 20  1  0
 20 21  2  0
 20 22  1  0
 22 23  1  0
 24 23  1  6
 24 26  1  0
 24 25  1  0
 25 17  1  0
 26 27  1  0
 28 26  2  0
M  END
$$$$
