HLQ.pdb
     RDKit          3D

 28 28  0  0  1  0  0  0  0  0999 V2000
   10.0695  -16.1730   20.5224 N   0  0  0  0  0  0  0  0  0  0  0  0
    8.7699  -16.2339   21.1456 C   0  0  1  0  0  0  0  0  0  0  0  0
    8.3164  -17.6608   21.3668 C   0  0  0  0  0  0  0  0  0  0  0  0
    7.5745  -18.0979   20.1670 C   0  0  0  0  0  0  0  0  0  0  0  0
    7.3952  -17.3433   19.0292 C   0  0  0  0  0  0  0  0  0  0  0  0
    6.6745  -18.1048   18.1956 N   0  0  0  0  0  0  0  0  0  0  0  0
    6.4229  -19.2793   18.7997 C   0  0  0  0  0  0  0  0  0  0  0  0
    6.9834  -19.2890   20.0412 N   0  0  0  0  0  0  0  0  0  0  0  0
    8.9050  -15.6228   22.5103 C   0  0  0  0  0  0  0  0  0  0  0  0
    9.9900  -15.7169   23.1762 O   0  0  0  0  0  0  0  0  0  0  0  0
    8.2186  -11.9930   26.5500 C   0  0  0  0  0  0  0  0  0  0  0  0
    7.0817  -12.9029   26.2576 C   0  0  1  0  0  0  0  0  0  0  0  0
    5.7461  -12.3295   26.7107 C   0  0  0  0  0  0  0  0  0  0  0  0
    6.9630  -13.3913   24.8465 C   0  0  0  0  0  0  0  0  0  0  0  0
    7.9908  -14.3824   24.4441 C   0  0  2  0  0  0  0  0  0  0  0  0
    7.8468  -14.9189   23.1210 N   0  0  0  0  0  0  0  0  0  0  0  0
    8.0939  -15.5145   25.4307 C   0  0  0  0  0  0  0  0  0  0  0  0
    7.1578  -16.3032   25.6440 O   0  0  0  0  0  0  0  0  0  0  0  0
   12.4586  -19.3118   24.5724 N   0  0  0  0  0  0  0  0  0  0  0  0
   12.1125  -19.7195   25.8814 C   0  0  0  0  0  0  0  0  0  0  0  0
   12.6866  -20.7136   26.3673 O   0  0  0  0  0  0  0  0  0  0  0  0
   11.1066  -18.9875   26.6347 C   0  0  0  0  0  0  0  0  0  0  0  0
   10.5937  -17.7413   26.0092 C   0  0  0  0  0  0  0  0  0  0  0  0
    9.6092  -16.9631   26.8267 C   0  0  2  0  0  0  0  0  0  0  0  0
    9.3006  -15.6947   26.1479 N   0  0  0  0  0  0  0  0  0  0  0  0
   10.1009  -16.6155   28.1770 C   0  0  0  0  0  0  0  0  0  0  0  0
   10.3379  -15.3141   28.5913 O   0  0  0  0  0  0  0  0  0  0  0  0
   10.3209  -17.5281   29.0038 O   0  0  0  0  0  0  0  0  0  0  0  0
  2  1  1  1
  3  4  1  0
  3  2  1  0
  4  5  2  0
  6  5  1  0
  7  6  1  0
  8  7  2  0
  8  4  1  0
  9  2  1  0
  9 16  1  0
 10  9  2  0
 12 11  1  6
 12 14  1  0
 13 12  1  0
 15 16  1  0
 15 14  1  1
 17 15  1  0
 18 17  2  0
 19 20  1  0
 20 21  2  0
 20 22  1  0
 22 23  1  0
 24 23  1  6
 24 26  1  0
 24 25  1  0
 25 17  1  0
 26 27  1  0
 28 26  2  0
M  END
$$$$
