HLQ.pdb
     RDKit          3D

 28 28  0  0  1  0  0  0  0  0999 V2000
    7.8111  -16.1232   20.9473 N   0  0  0  0  0  0  0  0  0  0  0  0
    9.1920  -15.8440   21.2575 C   0  0  1  0  0  0  0  0  0  0  0  0
    9.8182  -14.9047   20.2494 C   0  0  0  0  0  0  0  0  0  0  0  0
    8.8171  -14.6232   19.2008 C   0  0  0  0  0  0  0  0  0  0  0  0
    8.3031  -15.5551   18.3273 C   0  0  0  0  0  0  0  0  0  0  0  0
    7.4371  -14.8901   17.5514 N   0  0  0  0  0  0  0  0  0  0  0  0
    7.4220  -13.6016   17.9353 C   0  0  0  0  0  0  0  0  0  0  0  0
    8.2859  -13.4191   18.9726 N   0  0  0  0  0  0  0  0  0  0  0  0
    9.2118  -15.1187   22.5719 C   0  0  0  0  0  0  0  0  0  0  0  0
   10.2741  -14.5604   23.0071 O   0  0  0  0  0  0  0  0  0  0  0  0
    8.0294  -12.0804   26.7046 C   0  0  0  0  0  0  0  0  0  0  0  0
    6.9812  -13.1123   26.4984 C   0  0  1  0  0  0  0  0  0  0  0  0
    5.6006  -12.6324   26.9243 C   0  0  0  0  0  0  0  0  0  0  0  0
    6.9000  -13.7177   25.1306 C   0  0  0  0  0  0  0  0  0  0  0  0
    8.1369  -14.4015   24.6801 C   0  0  2  0  0  0  0  0  0  0  0  0
    8.0652  -15.0184   23.3864 N   0  0  0  0  0  0  0  0  0  0  0  0
    8.6165  -15.4125   25.6867 C   0  0  0  0  0  0  0  0  0  0  0  0
    9.0585  -15.0885   26.8017 O   0  0  0  0  0  0  0  0  0  0  0  0
   11.7198  -20.0035   23.3159 N   0  0  0  0  0  0  0  0  0  0  0  0
   12.2576  -19.8819   24.6180 C   0  0  0  0  0  0  0  0  0  0  0  0
   13.2506  -20.5727   24.9193 O   0  0  0  0  0  0  0  0  0  0  0  0
   11.6566  -18.9681   25.5764 C   0  0  0  0  0  0  0  0  0  0  0  0
   10.6089  -18.0565   25.0486 C   0  0  0  0  0  0  0  0  0  0  0  0
    9.4755  -17.7616   25.9822 C   0  0  2  0  0  0  0  0  0  0  0  0
    8.5654  -16.7883   25.3584 N   0  0  0  0  0  0  0  0  0  0  0  0
    9.9038  -17.1793   27.2719 C   0  0  0  0  0  0  0  0  0  0  0  0
    9.7694  -17.8333   28.4867 O   0  0  0  0  0  0  0  0  0  0  0  0
   10.4162  -16.0383   27.2902 O   0  0  0  0  0  0  0  0  0  0  0  0
  2  1  1  6
  3  4  1  0
  3  2  1  0
  4  5  2  0
  6  5  1  0
  7  6  1  0
  8  7  2  0
  8  4  1  0
  9  2  1  0
  9 16  1  0
 10  9  2  0
 12 11  1  6
 12 14  1  0
 13 12  1  0
 15 16  1  0
 15 14  1  1
 17 15  1  0
 18 17  2  0
 19 20  1  0
 20 21  2  0
 20 22  1  0
 22 23  1  0
 24 23  1  6
 24 26  1  0
 24 25  1  0
 25 17  1  0
 26 27  1  0
 28 26  2  0
M  END
$$$$
