HLQ.pdb
     RDKit          3D

 28 28  0  0  1  0  0  0  0  0999 V2000
    6.9625  -15.4883   21.1873 N   0  0  0  0  0  0  0  0  0  0  0  0
    8.3776  -15.3280   21.4175 C   0  0  1  0  0  0  0  0  0  0  0  0
    8.9320  -14.1152   20.7019 C   0  0  0  0  0  0  0  0  0  0  0  0
    8.5919  -14.2321   19.2695 C   0  0  0  0  0  0  0  0  0  0  0  0
    8.6157  -15.4020   18.5437 C   0  0  0  0  0  0  0  0  0  0  0  0
    8.2438  -15.0685   17.3008 N   0  0  0  0  0  0  0  0  0  0  0  0
    8.0019  -13.7464   17.2677 C   0  0  0  0  0  0  0  0  0  0  0  0
    8.2170  -13.2068   18.4998 N   0  0  0  0  0  0  0  0  0  0  0  0
    8.5598  -15.0662   22.8846 C   0  0  0  0  0  0  0  0  0  0  0  0
    9.7204  -14.9108   23.3929 O   0  0  0  0  0  0  0  0  0  0  0  0
    5.6784  -11.8583   26.2225 C   0  0  0  0  0  0  0  0  0  0  0  0
    6.8074  -12.6858   25.7258 C   0  0  1  0  0  0  0  0  0  0  0  0
    8.1587  -12.1748   26.2065 C   0  0  0  0  0  0  0  0  0  0  0  0
    6.7140  -14.1603   25.9728 C   0  0  0  0  0  0  0  0  0  0  0  0
    7.6684  -14.9826   25.1895 C   0  0  2  0  0  0  0  0  0  0  0  0
    7.4650  -14.9793   23.7689 N   0  0  0  0  0  0  0  0  0  0  0  0
    7.7176  -16.4043   25.6811 C   0  0  0  0  0  0  0  0  0  0  0  0
    6.7307  -17.1584   25.6470 O   0  0  0  0  0  0  0  0  0  0  0  0
   10.4891  -19.0531   22.8793 N   0  0  0  0  0  0  0  0  0  0  0  0
   11.4589  -18.8473   23.8876 C   0  0  0  0  0  0  0  0  0  0  0  0
   12.6353  -18.6178   23.5450 O   0  0  0  0  0  0  0  0  0  0  0  0
   11.0804  -18.9049   25.2906 C   0  0  0  0  0  0  0  0  0  0  0  0
    9.6414  -19.1414   25.5748 C   0  0  0  0  0  0  0  0  0  0  0  0
    9.0491  -18.3024   26.6648 C   0  0  2  0  0  0  0  0  0  0  0  0
    8.9315  -16.9100   26.2043 N   0  0  0  0  0  0  0  0  0  0  0  0
    9.8593  -18.2757   27.9013 C   0  0  0  0  0  0  0  0  0  0  0  0
   10.1140  -19.3999   28.6712 O   0  0  0  0  0  0  0  0  0  0  0  0
   10.3494  -17.1927   28.2906 O   0  0  0  0  0  0  0  0  0  0  0  0
  2  1  1  1
  3  4  1  0
  3  2  1  0
  4  5  2  0
  6  5  1  0
  7  6  1  0
  8  7  2  0
  8  4  1  0
  9  2  1  0
  9 16  1  0
 10  9  2  0
 12 11  1  1
 12 14  1  0
 13 12  1  0
 15 16  1  0
 15 14  1  1
 17 15  1  0
 18 17  2  0
 19 20  1  0
 20 21  2  0
 20 22  1  0
 22 23  1  0
 24 23  1  6
 24 26  1  0
 24 25  1  0
 25 17  1  0
 26 27  1  0
 28 26  2  0
M  END
$$$$
