HLQ.pdb
     RDKit          3D

 28 28  0  0  1  0  0  0  0  0999 V2000
    9.5452  -15.6918   20.1047 N   0  0  0  0  0  0  0  0  0  0  0  0
    8.2734  -15.6835   20.7855 C   0  0  1  0  0  0  0  0  0  0  0  0
    7.6653  -17.0672   20.8624 C   0  0  0  0  0  0  0  0  0  0  0  0
    7.2477  -17.4613   19.5018 C   0  0  0  0  0  0  0  0  0  0  0  0
    7.5234  -16.7533   18.3535 C   0  0  0  0  0  0  0  0  0  0  0  0
    6.9701  -17.4506   17.3525 N   0  0  0  0  0  0  0  0  0  0  0  0
    6.3791  -18.5425   17.8685 C   0  0  0  0  0  0  0  0  0  0  0  0
    6.5458  -18.5622   19.2203 N   0  0  0  0  0  0  0  0  0  0  0  0
    8.5337  -15.2629   22.2031 C   0  0  0  0  0  0  0  0  0  0  0  0
    9.6309  -15.5476   22.7901 O   0  0  0  0  0  0  0  0  0  0  0  0
    8.3429  -11.8756   26.5136 C   0  0  0  0  0  0  0  0  0  0  0  0
    7.1993  -12.8034   26.3200 C   0  0  1  0  0  0  0  0  0  0  0  0
    5.9280  -12.3089   26.9961 C   0  0  0  0  0  0  0  0  0  0  0  0
    6.8928  -13.2002   24.9084 C   0  0  0  0  0  0  0  0  0  0  0  0
    7.8634  -14.1459   24.3048 C   0  0  2  0  0  0  0  0  0  0  0  0
    7.5852  -14.5368   22.9524 N   0  0  0  0  0  0  0  0  0  0  0  0
    8.0454  -15.3775   25.1506 C   0  0  0  0  0  0  0  0  0  0  0  0
    7.1570  -16.2361   25.2820 O   0  0  0  0  0  0  0  0  0  0  0  0
   10.9226  -19.7719   23.7959 N   0  0  0  0  0  0  0  0  0  0  0  0
   11.2287  -19.9788   25.1608 C   0  0  0  0  0  0  0  0  0  0  0  0
   11.6358  -21.1020   25.5165 O   0  0  0  0  0  0  0  0  0  0  0  0
   11.0676  -18.8974   26.1197 C   0  0  0  0  0  0  0  0  0  0  0  0
   10.5728  -17.6055   25.5778 C   0  0  0  0  0  0  0  0  0  0  0  0
    9.6101  -16.8618   26.4514 C   0  0  2  0  0  0  0  0  0  0  0  0
    9.2736  -15.5732   25.8260 N   0  0  0  0  0  0  0  0  0  0  0  0
   10.1418  -16.5570   27.7969 C   0  0  0  0  0  0  0  0  0  0  0  0
   10.0713  -17.4398   28.8633 O   0  0  0  0  0  0  0  0  0  0  0  0
   10.6872  -15.4508   28.0052 O   0  0  0  0  0  0  0  0  0  0  0  0
  2  1  1  6
  3  4  1  0
  3  2  1  0
  4  5  2  0
  6  5  1  0
  7  6  1  0
  8  7  2  0
  8  4  1  0
  9  2  1  0
  9 16  1  0
 10  9  2  0
 12 11  1  6
 12 14  1  0
 13 12  1  0
 15 16  1  0
 15 14  1  1
 17 15  1  0
 18 17  2  0
 19 20  1  0
 20 21  2  0
 20 22  1  0
 22 23  1  0
 24 23  1  6
 24 26  1  0
 24 25  1  0
 25 17  1  0
 26 27  1  0
 28 26  2  0
M  END
$$$$
