VLN.pdb
     RDKit          3D

 24 23  0  0  1  0  0  0  0  0999 V2000
   14.7058  -19.4693    0.6424 C   0  0  0  0  0  0  0  0  0  0  0  0
   15.7771  -18.9496    1.5464 C   0  0  2  0  0  0  0  0  0  0  0  0
   16.8489  -19.9938    1.7785 C   0  0  0  0  0  0  0  0  0  0  0  0
   15.2411  -18.5251    2.8942 C   0  0  2  0  0  0  0  0  0  0  0  0
   14.1075  -17.6513    2.7538 N   0  0  0  0  0  0  0  0  0  0  0  0
   16.2921  -17.9304    3.7532 C   0  0  0  0  0  0  0  0  0  0  0  0
   17.3002  -18.6038    4.0117 O   0  0  0  0  0  0  0  0  0  0  0  0
   18.2165  -12.5476    3.6722 C   0  0  0  0  0  0  0  0  0  0  0  0
   17.9479  -14.0443    3.6916 C   0  0  1  0  0  0  0  0  0  0  0  0
   19.2452  -14.7526    3.4694 C   0  0  0  0  0  0  0  0  0  0  0  0
   17.1780  -14.4616    4.9042 C   0  0  0  0  0  0  0  0  0  0  0  0
   17.0434  -15.9472    5.0955 C   0  0  2  0  0  0  0  0  0  0  0  0
   16.1167  -16.6159    4.2524 N   0  0  0  0  0  0  0  0  0  0  0  0
   16.8779  -16.3409    6.4979 C   0  0  0  0  0  0  0  0  0  0  0  0
   15.7394  -16.2458    7.0365 O   0  0  0  0  0  0  0  0  0  0  0  0
   18.3052  -20.0311   10.7408 N   0  0  0  0  0  0  0  0  0  0  0  0
   18.4932  -18.6391   10.5542 C   0  0  0  0  0  0  0  0  0  0  0  0
   18.4521  -17.9146   11.5788 O   0  0  0  0  0  0  0  0  0  0  0  0
   18.7208  -18.1501    9.1861 C   0  0  0  0  0  0  0  0  0  0  0  0
   17.7266  -17.1269    8.7324 C   0  0  2  0  0  0  0  0  0  0  0  0
   17.9298  -16.8336    7.3152 N   0  0  0  0  0  0  0  0  0  0  0  0
   17.7724  -15.8841    9.5415 C   0  0  0  0  0  0  0  0  0  0  0  0
   17.0722  -15.7958   10.7342 O   0  0  0  0  0  0  0  0  0  0  0  0
   18.4354  -14.8815    9.1840 O   0  0  0  0  0  0  0  0  0  0  0  0
  2  1  1  6
  2  3  1  0
  4  2  1  0
  4  5  1  6
  6  4  1  0
  6  7  2  0
  9 10  1  1
  9  8  1  0
 11  9  1  0
 12 11  1  1
 12 13  1  0
 13  6  1  0
 14 12  1  0
 15 14  2  0
 17 18  2  0
 17 16  1  0
 19 17  1  0
 20 19  1  1
 20 21  1  0
 20 22  1  0
 21 14  1  0
 22 23  1  0
 24 22  2  0
M  END
$$$$
