VLN.pdb
     RDKit          3D

 24 23  0  0  1  0  0  0  0  0999 V2000
   17.2405  -13.3539  -17.3495 C   0  0  0  0  0  0  0  0  0  0  0  0
   17.0091  -12.0259  -16.7033 C   0  0  2  0  0  0  0  0  0  0  0  0
   16.8583  -10.9334  -17.7409 C   0  0  0  0  0  0  0  0  0  0  0  0
   18.1327  -11.6319  -15.7724 C   0  0  2  0  0  0  0  0  0  0  0  0
   18.3644  -12.6429  -14.7763 N   0  0  0  0  0  0  0  0  0  0  0  0
   17.9145  -10.2984  -15.1638 C   0  0  0  0  0  0  0  0  0  0  0  0
   17.8177   -9.3130  -15.9096 O   0  0  0  0  0  0  0  0  0  0  0  0
   15.1071   -9.9966  -10.2779 C   0  0  0  0  0  0  0  0  0  0  0  0
   15.5589   -9.6167  -11.6793 C   0  0  1  0  0  0  0  0  0  0  0  0
   14.5205   -8.7227  -12.2766 C   0  0  0  0  0  0  0  0  0  0  0  0
   16.9586   -9.0895  -11.6950 C   0  0  0  0  0  0  0  0  0  0  0  0
   17.5820   -8.9728  -13.0587 C   0  0  2  0  0  0  0  0  0  0  0  0
   17.8232  -10.1872  -13.7541 N   0  0  0  0  0  0  0  0  0  0  0  0
   18.7533   -8.0918  -13.0898 C   0  0  0  0  0  0  0  0  0  0  0  0
   19.8563   -8.5136  -12.6416 O   0  0  0  0  0  0  0  0  0  0  0  0
   22.3177   -4.6486  -14.1966 N   0  0  0  0  0  0  0  0  0  0  0  0
   22.1699   -5.8980  -14.8483 C   0  0  0  0  0  0  0  0  0  0  0  0
   23.1080   -6.2662  -15.5972 O   0  0  0  0  0  0  0  0  0  0  0  0
   20.9394   -6.6645  -14.6016 C   0  0  0  0  0  0  0  0  0  0  0  0
   19.9602   -5.9716  -13.7059 C   0  0  2  0  0  0  0  0  0  0  0  0
   18.7383   -6.7662  -13.5996 N   0  0  0  0  0  0  0  0  0  0  0  0
   19.6551   -4.5892  -14.1498 C   0  0  0  0  0  0  0  0  0  0  0  0
   20.4650   -3.5326  -13.7647 O   0  0  0  0  0  0  0  0  0  0  0  0
   18.6690   -4.3268  -14.8787 O   0  0  0  0  0  0  0  0  0  0  0  0
  2  1  1  6
  2  3  1  0
  4  2  1  0
  4  5  1  1
  6  4  1  0
  6  7  2  0
  9 10  1  1
  9  8  1  0
 11  9  1  0
 12 11  1  1
 12 13  1  0
 13  6  1  0
 14 12  1  0
 15 14  2  0
 17 18  2  0
 17 16  1  0
 19 17  1  0
 20 19  1  6
 20 21  1  0
 20 22  1  0
 21 14  1  0
 22 23  1  0
 24 22  2  0
M  END
$$$$
