VLN.pdb
     RDKit          3D

 24 23  0  0  1  0  0  0  0  0999 V2000
   20.8282  -33.7531  -10.8533 C   0  0  0  0  0  0  0  0  0  0  0  0
   19.9839  -33.8692   -9.6251 C   0  0  2  0  0  0  0  0  0  0  0  0
   18.6036  -33.2908   -9.8554 C   0  0  0  0  0  0  0  0  0  0  0  0
   20.5924  -33.1624   -8.4359 C   0  0  2  0  0  0  0  0  0  0  0  0
   20.5672  -31.7349   -8.6076 N   0  0  0  0  0  0  0  0  0  0  0  0
   21.9552  -33.6564   -8.1275 C   0  0  0  0  0  0  0  0  0  0  0  0
   22.1307  -34.8769   -8.0003 O   0  0  0  0  0  0  0  0  0  0  0  0
   26.0132  -34.0069   -9.7653 C   0  0  0  0  0  0  0  0  0  0  0  0
   26.5438  -33.0826   -8.6805 C   0  0  1  0  0  0  0  0  0  0  0  0
   27.6965  -32.3165   -9.2449 C   0  0  0  0  0  0  0  0  0  0  0  0
   25.4578  -32.2618   -8.0607 C   0  0  0  0  0  0  0  0  0  0  0  0
   24.3066  -33.0475   -7.4956 C   0  0  2  0  0  0  0  0  0  0  0  0
   23.0140  -32.7251   -7.9873 N   0  0  0  0  0  0  0  0  0  0  0  0
   24.3214  -33.1307   -6.0320 C   0  0  0  0  0  0  0  0  0  0  0  0
   23.5430  -32.3946   -5.3629 O   0  0  0  0  0  0  0  0  0  0  0  0
   23.0852  -35.5607   -1.3697 N   0  0  0  0  0  0  0  0  0  0  0  0
   23.6296  -34.3596   -1.8881 C   0  0  0  0  0  0  0  0  0  0  0  0
   23.9783  -33.4852   -1.0574 O   0  0  0  0  0  0  0  0  0  0  0  0
   23.7450  -34.2273   -3.3482 C   0  0  0  0  0  0  0  0  0  0  0  0
   25.1479  -34.0303   -3.8323 C   0  0  2  0  0  0  0  0  0  0  0  0
   25.1676  -33.9998   -5.2932 N   0  0  0  0  0  0  0  0  0  0  0  0
   26.0839  -35.0572   -3.3120 C   0  0  0  0  0  0  0  0  0  0  0  0
   26.7844  -34.8384   -2.1364 O   0  0  0  0  0  0  0  0  0  0  0  0
   26.2748  -36.1452   -3.9056 O   0  0  0  0  0  0  0  0  0  0  0  0
  2  1  1  6
  2  3  1  0
  4  2  1  0
  4  5  1  6
  6  4  1  0
  6  7  2  0
  9 10  1  6
  9  8  1  0
 11  9  1  0
 12 11  1  1
 12 13  1  0
 13  6  1  0
 14 12  1  0
 15 14  2  0
 17 18  2  0
 17 16  1  0
 19 17  1  0
 20 19  1  6
 20 21  1  0
 20 22  1  0
 21 14  1  0
 22 23  1  0
 24 22  2  0
M  END
$$$$
