VLN.pdb
     RDKit          3D

 24 23  0  0  1  0  0  0  0  0999 V2000
   21.8835  -14.0003  -16.6874 C   0  0  0  0  0  0  0  0  0  0  0  0
   20.4896  -13.5941  -17.0439 C   0  0  2  0  0  0  0  0  0  0  0  0
   19.8676  -14.5746  -18.0159 C   0  0  0  0  0  0  0  0  0  0  0  0
   20.4294  -12.2188  -17.6674 C   0  0  2  0  0  0  0  0  0  0  0  0
   21.0745  -12.1992  -18.9525 N   0  0  0  0  0  0  0  0  0  0  0  0
   20.9646  -11.1711  -16.7662 C   0  0  0  0  0  0  0  0  0  0  0  0
   20.4159  -10.9935  -15.6690 O   0  0  0  0  0  0  0  0  0  0  0  0
   26.3446  -10.1166  -15.7262 C   0  0  0  0  0  0  0  0  0  0  0  0
   24.8332  -10.2693  -15.6577 C   0  0  1  0  0  0  0  0  0  0  0  0
   24.4438  -10.4026  -14.2208 C   0  0  0  0  0  0  0  0  0  0  0  0
   24.1248   -9.2002  -16.4274 C   0  0  0  0  0  0  0  0  0  0  0  0
   22.6254   -9.3162  -16.4499 C   0  0  2  0  0  0  0  0  0  0  0  0
   22.0826  -10.4056  -17.1813 N   0  0  0  0  0  0  0  0  0  0  0  0
   21.9491   -8.0572  -16.7764 C   0  0  0  0  0  0  0  0  0  0  0  0
   21.8971   -7.6772  -17.9799 O   0  0  0  0  0  0  0  0  0  0  0  0
   19.1760   -3.7275  -16.7530 N   0  0  0  0  0  0  0  0  0  0  0  0
   18.7178   -4.5222  -15.6731 C   0  0  0  0  0  0  0  0  0  0  0  0
   17.7181   -4.1033  -15.0395 O   0  0  0  0  0  0  0  0  0  0  0  0
   19.4407   -5.7682  -15.3769 C   0  0  0  0  0  0  0  0  0  0  0  0
   20.6763   -5.9649  -16.1990 C   0  0  2  0  0  0  0  0  0  0  0  0
   21.3329   -7.2127  -15.8150 N   0  0  0  0  0  0  0  0  0  0  0  0
   21.6168   -4.8213  -16.1040 C   0  0  0  0  0  0  0  0  0  0  0  0
   21.6040   -3.8195  -17.0614 O   0  0  0  0  0  0  0  0  0  0  0  0
   22.4463   -4.7181  -15.1692 O   0  0  0  0  0  0  0  0  0  0  0  0
  2  1  1  6
  2  3  1  0
  4  2  1  0
  4  5  1  6
  6  4  1  0
  6  7  2  0
  9 10  1  1
  9  8  1  0
 11  9  1  0
 12 11  1  6
 12 13  1  0
 13  6  1  0
 14 12  1  0
 15 14  2  0
 17 18  2  0
 17 16  1  0
 19 17  1  0
 20 19  1  1
 20 21  1  0
 20 22  1  0
 21 14  1  0
 22 23  1  0
 24 22  2  0
M  END
$$$$
