VLN.pdb
     RDKit          3D

 24 23  0  0  1  0  0  0  0  0999 V2000
   17.6497  -14.5903  -17.6215 C   0  0  0  0  0  0  0  0  0  0  0  0
   18.1707  -13.7780  -16.4798 C   0  0  2  0  0  0  0  0  0  0  0  0
   17.5904  -14.2518  -15.1638 C   0  0  0  0  0  0  0  0  0  0  0  0
   17.8553  -12.3071  -16.6249 C   0  0  2  0  0  0  0  0  0  0  0  0
   18.2948  -11.8018  -17.8976 N   0  0  0  0  0  0  0  0  0  0  0  0
   18.3905  -11.5055  -15.4992 C   0  0  0  0  0  0  0  0  0  0  0  0
   18.0955  -11.8354  -14.3413 O   0  0  0  0  0  0  0  0  0  0  0  0
   23.7089   -9.9141  -15.3962 C   0  0  0  0  0  0  0  0  0  0  0  0
   22.3189  -10.3462  -14.9561 C   0  0  1  0  0  0  0  0  0  0  0  0
   22.4310  -10.9611  -13.5983 C   0  0  0  0  0  0  0  0  0  0  0  0
   21.3184   -9.2424  -15.0900 C   0  0  0  0  0  0  0  0  0  0  0  0
   19.8968   -9.6286  -14.7871 C   0  0  2  0  0  0  0  0  0  0  0  0
   19.2200  -10.3904  -15.7760 N   0  0  0  0  0  0  0  0  0  0  0  0
   19.0774   -8.5084  -14.3149 C   0  0  0  0  0  0  0  0  0  0  0  0
   18.4317   -7.8183  -15.1530 O   0  0  0  0  0  0  0  0  0  0  0  0
   16.7640   -5.9001   -9.2269 N   0  0  0  0  0  0  0  0  0  0  0  0
   16.7822   -6.1417  -10.6230 C   0  0  0  0  0  0  0  0  0  0  0  0
   16.0463   -5.4179  -11.3377 O   0  0  0  0  0  0  0  0  0  0  0  0
   17.6543   -7.2131  -11.1273 C   0  0  0  0  0  0  0  0  0  0  0  0
   18.1139   -7.0105  -12.5376 C   0  0  2  0  0  0  0  0  0  0  0  0
   18.9533   -8.1331  -12.9507 N   0  0  0  0  0  0  0  0  0  0  0  0
   18.8223   -5.7212  -12.7305 C   0  0  0  0  0  0  0  0  0  0  0  0
   18.1392   -4.6055  -13.1877 O   0  0  0  0  0  0  0  0  0  0  0  0
   20.0466   -5.5926  -12.4915 O   0  0  0  0  0  0  0  0  0  0  0  0
  2  1  1  6
  2  3  1  0
  4  2  1  0
  4  5  1  6
  6  4  1  0
  6  7  2  0
  9 10  1  1
  9  8  1  0
 11  9  1  0
 12 11  1  6
 12 13  1  0
 13  6  1  0
 14 12  1  0
 15 14  2  0
 17 18  2  0
 17 16  1  0
 19 17  1  0
 20 19  1  1
 20 21  1  0
 20 22  1  0
 21 14  1  0
 22 23  1  0
 24 22  2  0
M  END
$$$$
