VLN.pdb
     RDKit          3D

 24 23  0  0  1  0  0  0  0  0999 V2000
   17.0482  -14.2635  -15.8712 C   0  0  0  0  0  0  0  0  0  0  0  0
   17.9554  -13.2512  -16.4932 C   0  0  2  0  0  0  0  0  0  0  0  0
   19.3989  -13.7052  -16.4378 C   0  0  0  0  0  0  0  0  0  0  0  0
   17.8655  -11.9018  -15.8185 C   0  0  2  0  0  0  0  0  0  0  0  0
   16.5170  -11.4024  -15.8270 N   0  0  0  0  0  0  0  0  0  0  0  0
   18.8191  -10.9235  -16.3928 C   0  0  0  0  0  0  0  0  0  0  0  0
   20.0339  -11.1517  -16.2989 O   0  0  0  0  0  0  0  0  0  0  0  0
   21.1467   -7.8037  -19.6608 C   0  0  0  0  0  0  0  0  0  0  0  0
   19.7127   -7.3015  -19.5967 C   0  0  1  0  0  0  0  0  0  0  0  0
   19.3357   -6.7964  -20.9521 C   0  0  0  0  0  0  0  0  0  0  0  0
   18.7885   -8.3145  -18.9995 C   0  0  0  0  0  0  0  0  0  0  0  0
   19.1313   -8.7453  -17.5999 C   0  0  2  0  0  0  0  0  0  0  0  0
   18.3187   -9.7608  -17.0298 N   0  0  0  0  0  0  0  0  0  0  0  0
   19.3201   -7.6235  -16.6753 C   0  0  0  0  0  0  0  0  0  0  0  0
   18.3087   -7.0732  -16.1560 O   0  0  0  0  0  0  0  0  0  0  0  0
   21.2157   -4.0173  -13.5220 N   0  0  0  0  0  0  0  0  0  0  0  0
   21.8770   -5.2520  -13.3077 C   0  0  0  0  0  0  0  0  0  0  0  0
   22.6479   -5.3232  -12.3193 O   0  0  0  0  0  0  0  0  0  0  0  0
   21.6137   -6.3493  -14.2507 C   0  0  0  0  0  0  0  0  0  0  0  0
   20.7152   -5.9724  -15.3873 C   0  0  2  0  0  0  0  0  0  0  0  0
   20.5882   -7.0970  -16.3118 N   0  0  0  0  0  0  0  0  0  0  0  0
   21.1703   -4.7522  -16.0982 C   0  0  0  0  0  0  0  0  0  0  0  0
   21.9399   -4.8535  -17.2462 O   0  0  0  0  0  0  0  0  0  0  0  0
   20.8812   -3.6005  -15.6949 O   0  0  0  0  0  0  0  0  0  0  0  0
  2  1  1  1
  2  3  1  0
  4  2  1  0
  4  5  1  6
  6  4  1  0
  6  7  2  0
  9 10  1  6
  9  8  1  0
 11  9  1  0
 12 11  1  6
 12 13  1  0
 13  6  1  0
 14 12  1  0
 15 14  2  0
 17 18  2  0
 17 16  1  0
 19 17  1  0
 20 19  1  1
 20 21  1  0
 20 22  1  0
 21 14  1  0
 22 23  1  0
 24 22  2  0
M  END
$$$$
