VLN.pdb
     RDKit          3D

 24 23  0  0  1  0  0  0  0  0999 V2000
   18.4460  -21.2653  -13.6286 C   0  0  0  0  0  0  0  0  0  0  0  0
   19.2148  -19.9902  -13.4940 C   0  0  2  0  0  0  0  0  0  0  0  0
   19.0362  -19.1140  -14.7160 C   0  0  0  0  0  0  0  0  0  0  0  0
   20.6953  -20.2249  -13.3017 C   0  0  2  0  0  0  0  0  0  0  0  0
   21.3191  -20.6543  -14.5242 N   0  0  0  0  0  0  0  0  0  0  0  0
   20.9744  -21.1569  -12.1838 C   0  0  0  0  0  0  0  0  0  0  0  0
   20.9910  -22.3747  -12.4149 O   0  0  0  0  0  0  0  0  0  0  0  0
   24.7885  -20.0327   -8.2479 C   0  0  0  0  0  0  0  0  0  0  0  0
   23.8763  -20.6927   -9.2700 C   0  0  1  0  0  0  0  0  0  0  0  0
   24.5399  -21.9445   -9.7461 C   0  0  0  0  0  0  0  0  0  0  0  0
   22.4798  -20.8506   -8.7580 C   0  0  0  0  0  0  0  0  0  0  0  0
   21.4988  -21.4230   -9.7439 C   0  0  2  0  0  0  0  0  0  0  0  0
   21.2134  -20.6332  -10.8889 N   0  0  0  0  0  0  0  0  0  0  0  0
   20.2731  -21.9288   -9.1186 C   0  0  0  0  0  0  0  0  0  0  0  0
   19.2722  -21.1656   -9.0135 O   0  0  0  0  0  0  0  0  0  0  0  0
   16.4767  -24.7401   -7.1517 N   0  0  0  0  0  0  0  0  0  0  0  0
   17.1495  -25.4895   -8.1485 C   0  0  0  0  0  0  0  0  0  0  0  0
   16.6189  -26.5696   -8.5067 O   0  0  0  0  0  0  0  0  0  0  0  0
   18.4085  -24.9515   -8.6851 C   0  0  0  0  0  0  0  0  0  0  0  0
   18.8731  -23.6999   -8.0076 C   0  0  2  0  0  0  0  0  0  0  0  0
   20.1251  -23.2466   -8.6098 N   0  0  0  0  0  0  0  0  0  0  0  0
   19.0205  -23.8626   -6.5402 C   0  0  0  0  0  0  0  0  0  0  0  0
   17.9108  -24.0991   -5.7445 O   0  0  0  0  0  0  0  0  0  0  0  0
   20.1362  -23.7937   -5.9720 O   0  0  0  0  0  0  0  0  0  0  0  0
  2  1  1  6
  2  3  1  0
  4  2  1  0
  4  5  1  6
  6  4  1  0
  6  7  2  0
  9 10  1  1
  9  8  1  0
 11  9  1  0
 12 11  1  1
 12 13  1  0
 13  6  1  0
 14 12  1  0
 15 14  2  0
 17 18  2  0
 17 16  1  0
 19 17  1  0
 20 19  1  6
 20 21  1  0
 20 22  1  0
 21 14  1  0
 22 23  1  0
 24 22  2  0
M  END
$$$$
