VLN.pdb
     RDKit          3D

 24 23  0  0  1  0  0  0  0  0999 V2000
   19.4682  -22.8450   -9.6747 C   0  0  0  0  0  0  0  0  0  0  0  0
   20.5826  -21.8500   -9.6197 C   0  0  2  0  0  0  0  0  0  0  0  0
   21.4679  -21.9543  -10.8438 C   0  0  0  0  0  0  0  0  0  0  0  0
   21.4548  -22.0254   -8.3980 C   0  0  2  0  0  0  0  0  0  0  0  0
   20.6670  -22.0698   -7.1958 N   0  0  0  0  0  0  0  0  0  0  0  0
   22.5222  -21.0003   -8.3197 C   0  0  0  0  0  0  0  0  0  0  0  0
   22.1975  -19.8042   -8.2972 O   0  0  0  0  0  0  0  0  0  0  0  0
   26.8267  -18.6187   -6.7860 C   0  0  0  0  0  0  0  0  0  0  0  0
   27.2849  -19.8913   -7.4811 C   0  0  1  0  0  0  0  0  0  0  0  0
   28.5681  -20.3289   -6.8519 C   0  0  0  0  0  0  0  0  0  0  0  0
   26.2025  -20.9222   -7.5368 C   0  0  0  0  0  0  0  0  0  0  0  0
   24.9876  -20.5306   -8.3321 C   0  0  2  0  0  0  0  0  0  0  0  0
   23.8769  -21.4134   -8.2731 N   0  0  0  0  0  0  0  0  0  0  0  0
   25.2954  -20.1427   -9.7119 C   0  0  0  0  0  0  0  0  0  0  0  0
   26.0250  -19.1333   -9.9224 O   0  0  0  0  0  0  0  0  0  0  0  0
   27.6446  -22.0465  -14.6073 N   0  0  0  0  0  0  0  0  0  0  0  0
   26.9989  -20.9939  -13.9124 C   0  0  0  0  0  0  0  0  0  0  0  0
   26.9125  -19.8888  -14.5018 O   0  0  0  0  0  0  0  0  0  0  0  0
   26.4823  -21.2715  -12.5638 C   0  0  0  0  0  0  0  0  0  0  0  0
   25.2624  -20.4813  -12.2050 C   0  0  2  0  0  0  0  0  0  0  0  0
   24.8216  -20.8358  -10.8576 N   0  0  0  0  0  0  0  0  0  0  0  0
   24.1604  -20.6510  -13.1838 C   0  0  0  0  0  0  0  0  0  0  0  0
   24.3645  -20.3758  -14.5266 O   0  0  0  0  0  0  0  0  0  0  0  0
   23.0200  -21.0436  -12.8402 O   0  0  0  0  0  0  0  0  0  0  0  0
  2  1  1  6
  2  3  1  0
  4  2  1  0
  4  5  1  1
  6  4  1  0
  6  7  2  0
  9 10  1  1
  9  8  1  0
 11  9  1  0
 12 11  1  6
 12 13  1  0
 13  6  1  0
 14 12  1  0
 15 14  2  0
 17 18  2  0
 17 16  1  0
 19 17  1  0
 20 19  1  6
 20 21  1  0
 20 22  1  0
 21 14  1  0
 22 23  1  0
 24 22  2  0
M  END
$$$$
