VLN.pdb
     RDKit          3D

 24 23  0  0  1  0  0  0  0  0999 V2000
   25.8739  -17.9338  -17.2032 C   0  0  0  0  0  0  0  0  0  0  0  0
   27.1801  -17.8689  -16.4790 C   0  0  2  0  0  0  0  0  0  0  0  0
   28.2177  -17.1229  -17.2912 C   0  0  0  0  0  0  0  0  0  0  0  0
   27.7341  -19.2388  -16.1615 C   0  0  2  0  0  0  0  0  0  0  0  0
   28.0272  -19.9746  -17.3617 N   0  0  0  0  0  0  0  0  0  0  0  0
   26.8511  -20.0025  -15.2487 C   0  0  0  0  0  0  0  0  0  0  0  0
   26.1095  -20.8723  -15.7284 O   0  0  0  0  0  0  0  0  0  0  0  0
   25.3235  -22.1953  -10.6258 C   0  0  0  0  0  0  0  0  0  0  0  0
   25.3624  -20.6812  -10.4900 C   0  0  1  0  0  0  0  0  0  0  0  0
   25.5900  -20.3488   -9.0506 C   0  0  0  0  0  0  0  0  0  0  0  0
   26.3118  -20.0539  -11.4609 C   0  0  0  0  0  0  0  0  0  0  0  0
   25.9762  -20.2674  -12.9113 C   0  0  2  0  0  0  0  0  0  0  0  0
   26.8789  -19.7191  -13.8605 N   0  0  0  0  0  0  0  0  0  0  0  0
   24.5849  -19.9435  -13.2406 C   0  0  0  0  0  0  0  0  0  0  0  0
   24.2568  -18.7370  -13.4201 O   0  0  0  0  0  0  0  0  0  0  0  0
   22.7946  -19.0083  -16.9598 N   0  0  0  0  0  0  0  0  0  0  0  0
   22.0525  -19.1643  -15.7629 C   0  0  0  0  0  0  0  0  0  0  0  0
   21.5071  -18.1367  -15.2909 O   0  0  0  0  0  0  0  0  0  0  0  0
   21.9766  -20.5067  -15.1672 C   0  0  0  0  0  0  0  0  0  0  0  0
   22.1777  -20.5265  -13.6839 C   0  0  2  0  0  0  0  0  0  0  0  0
   23.5536  -20.9106  -13.3759 N   0  0  0  0  0  0  0  0  0  0  0  0
   21.2127  -21.4111  -12.9857 C   0  0  0  0  0  0  0  0  0  0  0  0
   21.6607  -22.4892  -12.2390 O   0  0  0  0  0  0  0  0  0  0  0  0
   19.9744  -21.2213  -13.0429 O   0  0  0  0  0  0  0  0  0  0  0  0
  2  1  1  6
  2  3  1  0
  4  2  1  0
  4  5  1  6
  6  4  1  0
  6  7  2  0
  9 10  1  1
  9  8  1  0
 11  9  1  0
 12 11  1  1
 12 13  1  0
 13  6  1  0
 14 12  1  0
 15 14  2  0
 17 18  2  0
 17 16  1  0
 19 17  1  0
 20 19  1  6
 20 21  1  0
 20 22  1  0
 21 14  1  0
 22 23  1  0
 24 22  2  0
M  END
$$$$
