VLN.pdb
     RDKit          3D

 24 23  0  0  1  0  0  0  0  0999 V2000
   19.4793  -10.0670  -18.6457 C   0  0  0  0  0  0  0  0  0  0  0  0
   20.5146  -11.0291  -19.1328 C   0  0  2  0  0  0  0  0  0  0  0  0
   19.9070  -12.0617  -20.0588 C   0  0  0  0  0  0  0  0  0  0  0  0
   21.1997  -11.7627  -18.0029 C   0  0  2  0  0  0  0  0  0  0  0  0
   20.3067  -12.6937  -17.3674 N   0  0  0  0  0  0  0  0  0  0  0  0
   21.8162  -10.8354  -17.0251 C   0  0  0  0  0  0  0  0  0  0  0  0
   21.1896  -10.5577  -15.9922 O   0  0  0  0  0  0  0  0  0  0  0  0
   27.4429  -10.5793  -16.4028 C   0  0  0  0  0  0  0  0  0  0  0  0
   25.9474  -10.6133  -16.1296 C   0  0  1  0  0  0  0  0  0  0  0  0
   25.7435  -11.0240  -14.7069 C   0  0  0  0  0  0  0  0  0  0  0  0
   25.2713   -9.3451  -16.5441 C   0  0  0  0  0  0  0  0  0  0  0  0
   23.7698   -9.3646  -16.4600 C   0  0  2  0  0  0  0  0  0  0  0  0
   23.0978  -10.2949  -17.2963 N   0  0  0  0  0  0  0  0  0  0  0  0
   23.1649   -8.0317  -16.5410 C   0  0  0  0  0  0  0  0  0  0  0  0
   22.8302   -7.5722  -17.6689 O   0  0  0  0  0  0  0  0  0  0  0  0
   20.7199   -3.6645  -16.0013 N   0  0  0  0  0  0  0  0  0  0  0  0
   20.0808   -4.8991  -16.2754 C   0  0  0  0  0  0  0  0  0  0  0  0
   18.8776   -4.8529  -16.6312 O   0  0  0  0  0  0  0  0  0  0  0  0
   20.8672   -6.1326  -16.1241 C   0  0  0  0  0  0  0  0  0  0  0  0
   22.2314   -5.9174  -15.5465 C   0  0  2  0  0  0  0  0  0  0  0  0
   22.9217   -7.1988  -15.4165 N   0  0  0  0  0  0  0  0  0  0  0  0
   22.1982   -5.2005  -14.2479 C   0  0  0  0  0  0  0  0  0  0  0  0
   21.6608   -3.9259  -14.1623 O   0  0  0  0  0  0  0  0  0  0  0  0
   22.6475   -5.7111  -13.1944 O   0  0  0  0  0  0  0  0  0  0  0  0
  2  1  1  1
  2  3  1  0
  4  2  1  0
  4  5  1  1
  6  4  1  0
  6  7  2  0
  9 10  1  1
  9  8  1  0
 11  9  1  0
 12 11  1  6
 12 13  1  0
 13  6  1  0
 14 12  1  0
 15 14  2  0
 17 18  2  0
 17 16  1  0
 19 17  1  0
 20 19  1  1
 20 21  1  0
 20 22  1  0
 21 14  1  0
 22 23  1  0
 24 22  2  0
M  END
$$$$
