VLN.pdb
     RDKit          3D

 24 23  0  0  1  0  0  0  0  0999 V2000
   18.4701  -12.7578  -16.9342 C   0  0  0  0  0  0  0  0  0  0  0  0
   17.5770  -11.6140  -17.2933 C   0  0  2  0  0  0  0  0  0  0  0  0
   16.6625  -11.9766  -18.4444 C   0  0  0  0  0  0  0  0  0  0  0  0
   18.3510  -10.3767  -17.6855 C   0  0  2  0  0  0  0  0  0  0  0  0
   19.0439  -10.5671  -18.9312 N   0  0  0  0  0  0  0  0  0  0  0  0
   19.2646   -9.9229  -16.6105 C   0  0  0  0  0  0  0  0  0  0  0  0
   18.7874   -9.6551  -15.4983 O   0  0  0  0  0  0  0  0  0  0  0  0
   24.5278  -11.8633  -15.8062 C   0  0  0  0  0  0  0  0  0  0  0  0
   23.1190  -11.3246  -15.6122 C   0  0  1  0  0  0  0  0  0  0  0  0
   22.7030  -11.6062  -14.2044 C   0  0  0  0  0  0  0  0  0  0  0  0
   22.9956   -9.9012  -16.0548 C   0  0  0  0  0  0  0  0  0  0  0  0
   21.6119   -9.3198  -15.9582 C   0  0  2  0  0  0  0  0  0  0  0  0
   20.6506   -9.8084  -16.8822 N   0  0  0  0  0  0  0  0  0  0  0  0
   21.5992   -7.8554  -15.8907 C   0  0  0  0  0  0  0  0  0  0  0  0
   21.7796   -7.1862  -16.9466 O   0  0  0  0  0  0  0  0  0  0  0  0
   21.0359   -2.9288  -14.7211 N   0  0  0  0  0  0  0  0  0  0  0  0
   19.8447   -3.6960  -14.7344 C   0  0  0  0  0  0  0  0  0  0  0  0
   18.7591   -3.0654  -14.7333 O   0  0  0  0  0  0  0  0  0  0  0  0
   19.9670   -5.1614  -14.7484 C   0  0  0  0  0  0  0  0  0  0  0  0
   21.3793   -5.6547  -14.6909 C   0  0  2  0  0  0  0  0  0  0  0  0
   21.3938   -7.1160  -14.6956 N   0  0  0  0  0  0  0  0  0  0  0  0
   22.1261   -5.1221  -13.5247 C   0  0  0  0  0  0  0  0  0  0  0  0
   22.8681   -3.9571  -13.6377 O   0  0  0  0  0  0  0  0  0  0  0  0
   22.1153   -5.6956  -12.4095 O   0  0  0  0  0  0  0  0  0  0  0  0
  2  1  1  6
  2  3  1  0
  4  2  1  0
  4  5  1  6
  6  4  1  0
  6  7  2  0
  9 10  1  1
  9  8  1  0
 11  9  1  0
 12 11  1  6
 12 13  1  0
 13  6  1  0
 14 12  1  0
 15 14  2  0
 17 18  2  0
 17 16  1  0
 19 17  1  0
 20 19  1  1
 20 21  1  0
 20 22  1  0
 21 14  1  0
 22 23  1  0
 24 22  2  0
M  END
$$$$
