WDT.pdb
     RDKit          3D

 30 31  0  0  1  0  0  0  0  0999 V2000
   27.6767  -21.3855   -9.9592 N   0  0  0  0  0  0  0  0  0  0  0  0
   26.3927  -21.0056   -9.3289 C   0  0  1  0  0  0  0  0  0  0  0  0
   26.6140  -19.5877   -8.8638 C   0  0  0  0  0  0  0  0  0  0  0  0
   27.6453  -19.4400   -7.8234 C   0  0  0  0  0  0  0  0  0  0  0  0
   28.8037  -18.6696   -7.9634 C   0  0  0  0  0  0  0  0  0  0  0  0
   29.5175  -18.7143   -6.8277 N   0  0  0  0  0  0  0  0  0  0  0  0
   28.8631  -19.4894   -5.9513 C   0  0  0  0  0  0  0  0  0  0  0  0
   29.1415  -19.8762   -4.6628 C   0  0  0  0  0  0  0  0  0  0  0  0
   28.2918  -20.7095   -3.9576 C   0  0  0  0  0  0  0  0  0  0  0  0
   27.1590  -21.1475   -4.5680 C   0  0  0  0  0  0  0  0  0  0  0  0
   26.8563  -20.7820   -5.8413 C   0  0  0  0  0  0  0  0  0  0  0  0
   27.6942  -19.9515   -6.5535 C   0  0  0  0  0  0  0  0  0  0  0  0
   25.2985  -21.1560  -10.2826 C   0  0  0  0  0  0  0  0  0  0  0  0
   25.5471  -21.6553  -11.4249 O   0  0  0  0  0  0  0  0  0  0  0  0
   23.9456  -20.7596   -9.9618 N   0  0  0  0  0  0  0  0  0  0  0  0
   22.9449  -20.9424  -10.9653 C   0  0  1  0  0  0  0  0  0  0  0  0
   21.5357  -20.8161  -10.3433 C   0  0  0  0  0  0  0  0  0  0  0  0
   20.5074  -21.1275  -11.3557 C   0  0  0  0  0  0  0  0  0  0  0  0
   20.8357  -21.8293  -12.3511 O   0  0  0  0  0  0  0  0  0  0  0  0
   22.9745  -19.9576  -12.0546 C   0  0  0  0  0  0  0  0  0  0  0  0
   22.8132  -18.7443  -11.8892 O   0  0  0  0  0  0  0  0  0  0  0  0
   19.2228  -20.6759  -11.2383 O   0  0  0  0  0  0  0  0  0  0  0  0
   25.7115  -19.6745  -15.0202 C   0  0  0  0  0  0  0  0  0  0  0  0
   24.3019  -19.8612  -15.5359 C   0  0  1  0  0  0  0  0  0  0  0  0
   24.1570  -21.2305  -15.7955 O   0  0  0  0  0  0  0  0  0  0  0  0
   23.2613  -19.5202  -14.5132 C   0  0  2  0  0  0  0  0  0  0  0  0
   23.2001  -20.3969  -13.3859 N   0  0  0  0  0  0  0  0  0  0  0  0
   21.9397  -19.5639  -15.1997 C   0  0  0  0  0  0  0  0  0  0  0  0
   21.6462  -18.7320  -16.2915 O   0  0  0  0  0  0  0  0  0  0  0  0
   21.0163  -20.3428  -14.8440 O   0  0  0  0  0  0  0  0  0  0  0  0
  2  1  1  6
  2 13  1  0
  2  3  1  0
  3  4  1  0
  4  5  2  0
  5  6  1  0
  7  6  1  0
  8  7  2  0
  9  8  1  0
 10 11  1  0
 10  9  2  0
 11 12  2  0
 12  4  1  0
 12  7  1  0
 13 14  2  0
 15 13  1  0
 15 16  1  0
 16 17  1  1
 17 18  1  0
 18 22  1  0
 19 18  2  0
 20 21  2  0
 20 16  1  0
 24 23  1  1
 24 26  1  0
 25 24  1  0
 26 27  1  1
 27 20  1  0
 28 26  1  0
 28 29  1  0
 30 28  2  0
M  END
$$$$
