WDT.pdb
     RDKit          3D

 30 31  0  0  1  0  0  0  0  0999 V2000
   28.4889  -21.2117  -10.6746 N   0  0  0  0  0  0  0  0  0  0  0  0
   27.0375  -21.0664  -10.4239 C   0  0  1  0  0  0  0  0  0  0  0  0
   26.9207  -19.7648   -9.6702 C   0  0  0  0  0  0  0  0  0  0  0  0
   27.6987  -19.7101   -8.4215 C   0  0  0  0  0  0  0  0  0  0  0  0
   28.9206  -19.0450   -8.2806 C   0  0  0  0  0  0  0  0  0  0  0  0
   29.3524  -19.1539   -7.0146 N   0  0  0  0  0  0  0  0  0  0  0  0
   28.4526  -19.8691   -6.3246 C   0  0  0  0  0  0  0  0  0  0  0  0
   28.3980  -20.2803   -5.0150 C   0  0  0  0  0  0  0  0  0  0  0  0
   27.3424  -21.0360   -4.5370 C   0  0  0  0  0  0  0  0  0  0  0  0
   26.3437  -21.3714   -5.3959 C   0  0  0  0  0  0  0  0  0  0  0  0
   26.3695  -20.9792   -6.6967 C   0  0  0  0  0  0  0  0  0  0  0  0
   27.4150  -20.2253   -7.1842 C   0  0  0  0  0  0  0  0  0  0  0  0
   26.3027  -21.0932  -11.6844 C   0  0  0  0  0  0  0  0  0  0  0  0
   26.8495  -20.6023  -12.7217 O   0  0  0  0  0  0  0  0  0  0  0  0
   24.9788  -21.6655  -11.7848 N   0  0  0  0  0  0  0  0  0  0  0  0
   24.2827  -21.5143  -13.0235 C   0  0  1  0  0  0  0  0  0  0  0  0
   23.8188  -22.8926  -13.5469 C   0  0  0  0  0  0  0  0  0  0  0  0
   22.8548  -23.4925  -12.6035 C   0  0  0  0  0  0  0  0  0  0  0  0
   22.5224  -22.8322  -11.5813 O   0  0  0  0  0  0  0  0  0  0  0  0
   23.0628  -20.6995  -12.9517 C   0  0  0  0  0  0  0  0  0  0  0  0
   22.3323  -20.6412  -11.9576 O   0  0  0  0  0  0  0  0  0  0  0  0
   22.3220  -24.7337  -12.8119 O   0  0  0  0  0  0  0  0  0  0  0  0
   22.4641  -16.9819  -15.0767 C   0  0  0  0  0  0  0  0  0  0  0  0
   21.4611  -18.1033  -15.2321 C   0  0  1  0  0  0  0  0  0  0  0  0
   21.8364  -18.8089  -16.3831 O   0  0  0  0  0  0  0  0  0  0  0  0
   21.5153  -19.0890  -14.1049 C   0  0  2  0  0  0  0  0  0  0  0  0
   22.6760  -19.9226  -14.0756 N   0  0  0  0  0  0  0  0  0  0  0  0
   20.3213  -19.9706  -14.2344 C   0  0  0  0  0  0  0  0  0  0  0  0
   20.4401  -21.3358  -14.5383 O   0  0  0  0  0  0  0  0  0  0  0  0
   19.1455  -19.5466  -14.0804 O   0  0  0  0  0  0  0  0  0  0  0  0
  2  1  1  6
  2 13  1  0
  2  3  1  0
  3  4  1  0
  4  5  2  0
  5  6  1  0
  7  6  1  0
  8  7  2  0
  9  8  1  0
 10 11  1  0
 10  9  2  0
 11 12  2  0
 12  4  1  0
 12  7  1  0
 13 14  2  0
 15 13  1  0
 15 16  1  0
 16 17  1  1
 17 18  1  0
 18 22  1  0
 19 18  2  0
 20 21  2  0
 20 16  1  0
 24 23  1  1
 24 26  1  0
 25 24  1  0
 26 27  1  6
 27 20  1  0
 28 26  1  0
 28 29  1  0
 30 28  2  0
M  END
$$$$
