WDT.pdb
     RDKit          3D

 30 31  0  0  1  0  0  0  0  0999 V2000
   31.2633  -21.1710   11.1728 N   0  0  0  0  0  0  0  0  0  0  0  0
   31.9889  -22.0309   10.2114 C   0  0  1  0  0  0  0  0  0  0  0  0
   32.6944  -21.0557    9.3019 C   0  0  0  0  0  0  0  0  0  0  0  0
   31.8739  -20.5592    8.1847 C   0  0  0  0  0  0  0  0  0  0  0  0
   30.9099  -19.5529    8.2991 C   0  0  0  0  0  0  0  0  0  0  0  0
   30.3657  -19.3082    7.0969 N   0  0  0  0  0  0  0  0  0  0  0  0
   30.9426  -20.1225    6.2018 C   0  0  0  0  0  0  0  0  0  0  0  0
   30.7626  -20.2963    4.8510 C   0  0  0  0  0  0  0  0  0  0  0  0
   31.4916  -21.2312    4.1380 C   0  0  0  0  0  0  0  0  0  0  0  0
   32.4033  -21.9879    4.8041 C   0  0  0  0  0  0  0  0  0  0  0  0
   32.6040  -21.8388    6.1398 C   0  0  0  0  0  0  0  0  0  0  0  0
   31.8848  -20.9102    6.8606 C   0  0  0  0  0  0  0  0  0  0  0  0
   32.8844  -22.9379   10.9219 C   0  0  0  0  0  0  0  0  0  0  0  0
   33.1874  -22.6774   12.1287 O   0  0  0  0  0  0  0  0  0  0  0  0
   33.4282  -24.1215   10.2946 N   0  0  0  0  0  0  0  0  0  0  0  0
   34.3992  -24.8733   11.0252 C   0  0  1  0  0  0  0  0  0  0  0  0
   34.3066  -26.3703   10.6521 C   0  0  0  0  0  0  0  0  0  0  0  0
   35.1229  -27.1740   11.5832 C   0  0  0  0  0  0  0  0  0  0  0  0
   34.9445  -28.4223   11.6166 O   0  0  0  0  0  0  0  0  0  0  0  0
   35.7952  -24.4977   10.7657 C   0  0  0  0  0  0  0  0  0  0  0  0
   36.3477  -24.6206    9.6680 O   0  0  0  0  0  0  0  0  0  0  0  0
   36.0562  -26.6002   12.4004 O   0  0  0  0  0  0  0  0  0  0  0  0
   37.4272  -21.1748   10.7354 C   0  0  0  0  0  0  0  0  0  0  0  0
   38.0695  -21.9829   11.8410 C   0  0  1  0  0  0  0  0  0  0  0  0
   37.3720  -21.6668   13.0144 O   0  0  0  0  0  0  0  0  0  0  0  0
   37.9081  -23.4599   11.6472 C   0  0  2  0  0  0  0  0  0  0  0  0
   36.5797  -23.9586   11.8194 N   0  0  0  0  0  0  0  0  0  0  0  0
   38.7832  -24.1325   12.6481 C   0  0  0  0  0  0  0  0  0  0  0  0
   40.1792  -23.9890   12.6240 O   0  0  0  0  0  0  0  0  0  0  0  0
   38.3259  -24.8630   13.5663 O   0  0  0  0  0  0  0  0  0  0  0  0
  2  1  1  1
  2 13  1  0
  2  3  1  0
  3  4  1  0
  4  5  2  0
  5  6  1  0
  7  6  1  0
  8  7  2  0
  9  8  1  0
 10 11  1  0
 10  9  2  0
 11 12  2  0
 12  4  1  0
 12  7  1  0
 13 14  2  0
 15 13  1  0
 15 16  1  0
 16 17  1  6
 17 18  1  0
 18 22  1  0
 19 18  2  0
 20 21  2  0
 20 16  1  0
 24 23  1  6
 24 26  1  0
 25 24  1  0
 26 27  1  1
 27 20  1  0
 28 26  1  0
 28 29  1  0
 30 28  2  0
M  END
$$$$
