WDT.pdb
     RDKit          3D

 30 31  0  0  1  0  0  0  0  0999 V2000
   25.0632  -20.3151  -16.2972 N   0  0  0  0  0  0  0  0  0  0  0  0
   23.7007  -19.8912  -16.6900 C   0  0  1  0  0  0  0  0  0  0  0  0
   23.3964  -20.7145  -17.9170 C   0  0  0  0  0  0  0  0  0  0  0  0
   24.1589  -20.3287  -19.1160 C   0  0  0  0  0  0  0  0  0  0  0  0
   25.4085  -20.8532  -19.4600 C   0  0  0  0  0  0  0  0  0  0  0  0
   25.8172  -20.3240  -20.6236 N   0  0  0  0  0  0  0  0  0  0  0  0
   24.8754  -19.4706  -21.0500 C   0  0  0  0  0  0  0  0  0  0  0  0
   24.7836  -18.6652  -22.1591 C   0  0  0  0  0  0  0  0  0  0  0  0
   23.6872  -17.8488  -22.3720 C   0  0  0  0  0  0  0  0  0  0  0  0
   22.6858  -17.8551  -21.4529 C   0  0  0  0  0  0  0  0  0  0  0  0
   22.7479  -18.6411  -20.3462 C   0  0  0  0  0  0  0  0  0  0  0  0
   23.8342  -19.4593  -20.1237 C   0  0  0  0  0  0  0  0  0  0  0  0
   22.7695  -20.1001  -15.5862 C   0  0  0  0  0  0  0  0  0  0  0  0
   22.9941  -21.0459  -14.7671 O   0  0  0  0  0  0  0  0  0  0  0  0
   21.6077  -19.2604  -15.3976 N   0  0  0  0  0  0  0  0  0  0  0  0
   20.7772  -19.5213  -14.2644 C   0  0  1  0  0  0  0  0  0  0  0  0
   20.0574  -18.2275  -13.8208 C   0  0  0  0  0  0  0  0  0  0  0  0
   19.4971  -18.4008  -12.4660 C   0  0  0  0  0  0  0  0  0  0  0  0
   18.7015  -17.5257  -12.0272 O   0  0  0  0  0  0  0  0  0  0  0  0
   19.7052  -20.4983  -14.4953 C   0  0  0  0  0  0  0  0  0  0  0  0
   18.8641  -20.3967  -15.3940 O   0  0  0  0  0  0  0  0  0  0  0  0
   19.8193  -19.4763  -11.6868 O   0  0  0  0  0  0  0  0  0  0  0  0
   20.3986  -24.5313  -13.9352 C   0  0  0  0  0  0  0  0  0  0  0  0
   19.1054  -24.0378  -13.3254 C   0  0  1  0  0  0  0  0  0  0  0  0
   19.3645  -23.8394  -11.9627 O   0  0  0  0  0  0  0  0  0  0  0  0
   18.6816  -22.7060  -13.8656 C   0  0  2  0  0  0  0  0  0  0  0  0
   19.6054  -21.6365  -13.6521 N   0  0  0  0  0  0  0  0  0  0  0  0
   17.4013  -22.3466  -13.1936 C   0  0  0  0  0  0  0  0  0  0  0  0
   16.2679  -23.1706  -13.2736 O   0  0  0  0  0  0  0  0  0  0  0  0
   17.2619  -21.2915  -12.5203 O   0  0  0  0  0  0  0  0  0  0  0  0
  2  1  1  1
  2 13  1  0
  2  3  1  0
  3  4  1  0
  4  5  2  0
  5  6  1  0
  7  6  1  0
  8  7  2  0
  9  8  1  0
 10 11  1  0
 10  9  2  0
 11 12  2  0
 12  4  1  0
 12  7  1  0
 13 14  2  0
 15 13  1  0
 15 16  1  0
 16 17  1  6
 17 18  1  0
 18 22  1  0
 19 18  2  0
 20 21  2  0
 20 16  1  0
 24 23  1  6
 24 26  1  0
 25 24  1  0
 26 27  1  1
 27 20  1  0
 28 26  1  0
 28 29  1  0
 30 28  2  0
M  END
$$$$
