WDT.pdb
     RDKit          3D

 30 31  0  0  1  0  0  0  0  0999 V2000
   25.6218  -21.0905   -9.5159 N   0  0  0  0  0  0  0  0  0  0  0  0
   24.8193  -21.2894   -8.2883 C   0  0  1  0  0  0  0  0  0  0  0  0
   25.2187  -20.1411   -7.3951 C   0  0  0  0  0  0  0  0  0  0  0  0
   26.6679  -20.0227   -7.1636 C   0  0  0  0  0  0  0  0  0  0  0  0
   27.6155  -19.8262   -8.1728 C   0  0  0  0  0  0  0  0  0  0  0  0
   28.8395  -19.7255   -7.6315 N   0  0  0  0  0  0  0  0  0  0  0  0
   28.7218  -19.8506   -6.3020 C   0  0  0  0  0  0  0  0  0  0  0  0
   29.6410  -19.8339   -5.2813 C   0  0  0  0  0  0  0  0  0  0  0  0
   29.2603  -19.9985   -3.9615 C   0  0  0  0  0  0  0  0  0  0  0  0
   27.9419  -20.1802   -3.6848 C   0  0  0  0  0  0  0  0  0  0  0  0
   27.0092  -20.2011   -4.6728 C   0  0  0  0  0  0  0  0  0  0  0  0
   27.3761  -20.0371   -5.9910 C   0  0  0  0  0  0  0  0  0  0  0  0
   23.3975  -21.3236   -8.6150 C   0  0  0  0  0  0  0  0  0  0  0  0
   22.7350  -20.2394   -8.5773 O   0  0  0  0  0  0  0  0  0  0  0  0
   22.7278  -22.5507   -8.9839 N   0  0  0  0  0  0  0  0  0  0  0  0
   21.3352  -22.6627   -8.6841 C   0  0  1  0  0  0  0  0  0  0  0  0
   21.1158  -22.6511   -7.1542 C   0  0  0  0  0  0  0  0  0  0  0  0
   20.0663  -23.6224   -6.7874 C   0  0  0  0  0  0  0  0  0  0  0  0
   19.6756  -23.6624   -5.5887 O   0  0  0  0  0  0  0  0  0  0  0  0
   20.5016  -21.5694   -9.2008 C   0  0  0  0  0  0  0  0  0  0  0  0
   20.3760  -20.4763   -8.6398 O   0  0  0  0  0  0  0  0  0  0  0  0
   19.5166  -24.4692   -7.7086 O   0  0  0  0  0  0  0  0  0  0  0  0
   20.7247  -19.2563  -11.9829 C   0  0  0  0  0  0  0  0  0  0  0  0
   19.5103  -20.1168  -12.2518 C   0  0  1  0  0  0  0  0  0  0  0  0
   19.9489  -21.1729  -13.0615 O   0  0  0  0  0  0  0  0  0  0  0  0
   18.9607  -20.7474  -11.0086 C   0  0  2  0  0  0  0  0  0  0  0  0
   19.7870  -21.7509  -10.4143 N   0  0  0  0  0  0  0  0  0  0  0  0
   17.6624  -21.3803  -11.3741 C   0  0  0  0  0  0  0  0  0  0  0  0
   16.5788  -20.6240  -11.8473 O   0  0  0  0  0  0  0  0  0  0  0  0
   17.4624  -22.6201  -11.2807 O   0  0  0  0  0  0  0  0  0  0  0  0
  2  1  1  6
  2 13  1  0
  2  3  1  0
  3  4  1  0
  4  5  2  0
  5  6  1  0
  7  6  1  0
  8  7  2  0
  9  8  1  0
 10 11  1  0
 10  9  2  0
 11 12  2  0
 12  4  1  0
 12  7  1  0
 13 14  2  0
 15 13  1  0
 15 16  1  0
 16 17  1  1
 17 18  1  0
 18 22  1  0
 19 18  2  0
 20 21  2  0
 20 16  1  0
 24 23  1  1
 24 26  1  0
 25 24  1  0
 26 27  1  6
 27 20  1  0
 28 26  1  0
 28 29  1  0
 30 28  2  0
M  END
$$$$
