WDT.pdb
     RDKit          3D

 30 31  0  0  1  0  0  0  0  0999 V2000
   27.9802  -21.2254  -12.0413 N   0  0  0  0  0  0  0  0  0  0  0  0
   26.7594  -21.3809  -11.2194 C   0  0  1  0  0  0  0  0  0  0  0  0
   26.9026  -20.3344  -10.1423 C   0  0  0  0  0  0  0  0  0  0  0  0
   28.0645  -20.5233   -9.2578 C   0  0  0  0  0  0  0  0  0  0  0  0
   29.3211  -20.9609   -9.6872 C   0  0  0  0  0  0  0  0  0  0  0  0
   30.1689  -20.9944   -8.6473 N   0  0  0  0  0  0  0  0  0  0  0  0
   29.5063  -20.5936   -7.5530 C   0  0  0  0  0  0  0  0  0  0  0  0
   29.8816  -20.4489   -6.2395 C   0  0  0  0  0  0  0  0  0  0  0  0
   28.9885  -20.0182   -5.2747 C   0  0  0  0  0  0  0  0  0  0  0  0
   27.7133  -19.7359   -5.6513 C   0  0  0  0  0  0  0  0  0  0  0  0
   27.3124  -19.8691   -6.9429 C   0  0  0  0  0  0  0  0  0  0  0  0
   28.1932  -20.2961   -7.9129 C   0  0  0  0  0  0  0  0  0  0  0  0
   25.5692  -21.2233  -12.0488 C   0  0  0  0  0  0  0  0  0  0  0  0
   25.3972  -20.1274  -12.6697 O   0  0  0  0  0  0  0  0  0  0  0  0
   24.5891  -22.2771  -12.1867 N   0  0  0  0  0  0  0  0  0  0  0  0
   23.5120  -22.0662  -13.1017 C   0  0  1  0  0  0  0  0  0  0  0  0
   23.1338  -23.3940  -13.7965 C   0  0  0  0  0  0  0  0  0  0  0  0
   24.2590  -23.8676  -14.6266 C   0  0  0  0  0  0  0  0  0  0  0  0
   24.8687  -24.9140  -14.2737 O   0  0  0  0  0  0  0  0  0  0  0  0
   22.2669  -21.5834  -12.4904 C   0  0  0  0  0  0  0  0  0  0  0  0
   21.8404  -21.9736  -11.3989 O   0  0  0  0  0  0  0  0  0  0  0  0
   24.6492  -23.2034  -15.7555 O   0  0  0  0  0  0  0  0  0  0  0  0
   21.0073  -17.7019  -12.2930 C   0  0  0  0  0  0  0  0  0  0  0  0
   20.0235  -18.6253  -12.9765 C   0  0  1  0  0  0  0  0  0  0  0  0
   20.2470  -18.4876  -14.3530 O   0  0  0  0  0  0  0  0  0  0  0  0
   20.2677  -20.0691  -12.6588 C   0  0  2  0  0  0  0  0  0  0  0  0
   21.4872  -20.6111  -13.1707 N   0  0  0  0  0  0  0  0  0  0  0  0
   19.1394  -20.8451  -13.2458 C   0  0  0  0  0  0  0  0  0  0  0  0
   19.3223  -21.6980  -14.3455 O   0  0  0  0  0  0  0  0  0  0  0  0
   17.9656  -20.7820  -12.7940 O   0  0  0  0  0  0  0  0  0  0  0  0
  2  1  1  6
  2 13  1  0
  2  3  1  0
  3  4  1  0
  4  5  2  0
  5  6  1  0
  7  6  1  0
  8  7  2  0
  9  8  1  0
 10 11  1  0
 10  9  2  0
 11 12  2  0
 12  4  1  0
 12  7  1  0
 13 14  2  0
 15 13  1  0
 15 16  1  0
 16 17  1  1
 17 18  1  0
 18 22  1  0
 19 18  2  0
 20 21  2  0
 20 16  1  0
 24 23  1  1
 24 26  1  0
 25 24  1  0
 26 27  1  6
 27 20  1  0
 28 26  1  0
 28 29  1  0
 30 28  2  0
M  END
$$$$
