WDT.pdb
     RDKit          3D

 30 31  0  0  1  0  0  0  0  0999 V2000
   26.5587  -19.4027  -12.0135 N   0  0  0  0  0  0  0  0  0  0  0  0
   26.2837  -20.8554  -12.0796 C   0  0  1  0  0  0  0  0  0  0  0  0
   25.6120  -21.1651  -10.7648 C   0  0  0  0  0  0  0  0  0  0  0  0
   26.3115  -20.6363   -9.5820 C   0  0  0  0  0  0  0  0  0  0  0  0
   25.6982  -19.8951   -8.5674 C   0  0  0  0  0  0  0  0  0  0  0  0
   26.5986  -19.5939   -7.6188 N   0  0  0  0  0  0  0  0  0  0  0  0
   27.7798  -20.1137   -7.9816 C   0  0  0  0  0  0  0  0  0  0  0  0
   29.0217  -20.0998   -7.3946 C   0  0  0  0  0  0  0  0  0  0  0  0
   30.1095  -20.7153   -7.9875 C   0  0  0  0  0  0  0  0  0  0  0  0
   29.9290  -21.3441   -9.1789 C   0  0  0  0  0  0  0  0  0  0  0  0
   28.7127  -21.3751   -9.7840 C   0  0  0  0  0  0  0  0  0  0  0  0
   27.6215  -20.7666   -9.2027 C   0  0  0  0  0  0  0  0  0  0  0  0
   25.4698  -21.1620  -13.2513 C   0  0  0  0  0  0  0  0  0  0  0  0
   24.7208  -20.2535  -13.7305 O   0  0  0  0  0  0  0  0  0  0  0  0
   25.4973  -22.4630  -13.8814 N   0  0  0  0  0  0  0  0  0  0  0  0
   24.7303  -22.6391  -15.0741 C   0  0  1  0  0  0  0  0  0  0  0  0
   25.3646  -23.7355  -15.9597 C   0  0  0  0  0  0  0  0  0  0  0  0
   26.6583  -23.2666  -16.4945 C   0  0  0  0  0  0  0  0  0  0  0  0
   26.6739  -22.2241  -17.2045 O   0  0  0  0  0  0  0  0  0  0  0  0
   23.3436  -23.0725  -14.8591 C   0  0  0  0  0  0  0  0  0  0  0  0
   23.0013  -24.2544  -14.7517 O   0  0  0  0  0  0  0  0  0  0  0  0
   27.8250  -23.9312  -16.2397 O   0  0  0  0  0  0  0  0  0  0  0  0
   20.6312  -21.3329  -12.2825 C   0  0  0  0  0  0  0  0  0  0  0  0
   20.1815  -21.3973  -13.7253 C   0  0  1  0  0  0  0  0  0  0  0  0
   20.4884  -20.1513  -14.2881 O   0  0  0  0  0  0  0  0  0  0  0  0
   20.9416  -22.4121  -14.5238 C   0  0  2  0  0  0  0  0  0  0  0  0
   22.3150  -22.0981  -14.7647 N   0  0  0  0  0  0  0  0  0  0  0  0
   20.2607  -22.5320  -15.8437 C   0  0  0  0  0  0  0  0  0  0  0  0
   18.9416  -22.9985  -15.9551 O   0  0  0  0  0  0  0  0  0  0  0  0
   20.8238  -22.2246  -16.9274 O   0  0  0  0  0  0  0  0  0  0  0  0
  2  1  1  1
  2 13  1  0
  2  3  1  0
  3  4  1  0
  4  5  2  0
  5  6  1  0
  7  6  1  0
  8  7  2  0
  9  8  1  0
 10 11  1  0
 10  9  2  0
 11 12  2  0
 12  4  1  0
 12  7  1  0
 13 14  2  0
 15 13  1  0
 15 16  1  0
 16 17  1  6
 17 18  1  0
 18 22  1  0
 19 18  2  0
 20 21  2  0
 20 16  1  0
 24 23  1  1
 24 26  1  0
 25 24  1  0
 26 27  1  6
 27 20  1  0
 28 26  1  0
 28 29  1  0
 30 28  2  0
M  END
$$$$
