WDT.pdb
     RDKit          3D

 30 31  0  0  1  0  0  0  0  0999 V2000
   23.8137  -27.6696  -18.1482 N   0  0  0  0  0  0  0  0  0  0  0  0
   24.0216  -27.9248  -16.7052 C   0  0  1  0  0  0  0  0  0  0  0  0
   24.9685  -26.8343  -16.2692 C   0  0  0  0  0  0  0  0  0  0  0  0
   26.3032  -26.9011  -16.8873 C   0  0  0  0  0  0  0  0  0  0  0  0
   26.9011  -25.8512  -17.5911 C   0  0  0  0  0  0  0  0  0  0  0  0
   28.1271  -26.2175  -17.9959 N   0  0  0  0  0  0  0  0  0  0  0  0
   28.3486  -27.4725  -17.5799 C   0  0  0  0  0  0  0  0  0  0  0  0
   29.4167  -28.3246  -17.7222 C   0  0  0  0  0  0  0  0  0  0  0  0
   29.3968  -29.6043  -17.1970 C   0  0  0  0  0  0  0  0  0  0  0  0
   28.2869  -30.0132  -16.5274 C   0  0  0  0  0  0  0  0  0  0  0  0
   27.2148  -29.1932  -16.3700 C   0  0  0  0  0  0  0  0  0  0  0  0
   27.2233  -27.9160  -16.8876 C   0  0  0  0  0  0  0  0  0  0  0  0
   22.7427  -27.9197  -16.0026 C   0  0  0  0  0  0  0  0  0  0  0  0
   21.8081  -27.1767  -16.4390 O   0  0  0  0  0  0  0  0  0  0  0  0
   22.5103  -28.7373  -14.8331 N   0  0  0  0  0  0  0  0  0  0  0  0
   21.2148  -28.6836  -14.2326 C   0  0  1  0  0  0  0  0  0  0  0  0
   20.9501  -29.9701  -13.4179 C   0  0  0  0  0  0  0  0  0  0  0  0
   19.5722  -29.9576  -12.8882 C   0  0  0  0  0  0  0  0  0  0  0  0
   18.6176  -29.7996  -13.6975 O   0  0  0  0  0  0  0  0  0  0  0  0
   21.0186  -27.5799  -13.2836 C   0  0  0  0  0  0  0  0  0  0  0  0
   21.7228  -27.3979  -12.2854 O   0  0  0  0  0  0  0  0  0  0  0  0
   19.3129  -30.1112  -11.5552 O   0  0  0  0  0  0  0  0  0  0  0  0
   20.3389  -23.7253  -14.3263 C   0  0  0  0  0  0  0  0  0  0  0  0
   19.2799  -24.2767  -13.3978 C   0  0  1  0  0  0  0  0  0  0  0  0
   18.2107  -24.6721  -14.2126 O   0  0  0  0  0  0  0  0  0  0  0  0
   19.7290  -25.5100  -12.6749 C   0  0  2  0  0  0  0  0  0  0  0  0
   19.9659  -26.6521  -13.5009 N   0  0  0  0  0  0  0  0  0  0  0  0
   18.6578  -25.8630  -11.7013 C   0  0  0  0  0  0  0  0  0  0  0  0
   18.2224  -24.9577  -10.7210 O   0  0  0  0  0  0  0  0  0  0  0  0
   18.0852  -26.9846  -11.7005 O   0  0  0  0  0  0  0  0  0  0  0  0
  2  1  1  6
  2 13  1  0
  2  3  1  0
  3  4  1  0
  4  5  2  0
  5  6  1  0
  7  6  1  0
  8  7  2  0
  9  8  1  0
 10 11  1  0
 10  9  2  0
 11 12  2  0
 12  4  1  0
 12  7  1  0
 13 14  2  0
 15 13  1  0
 15 16  1  0
 16 17  1  1
 17 18  1  0
 18 22  1  0
 19 18  2  0
 20 21  2  0
 20 16  1  0
 24 23  1  6
 24 26  1  0
 25 24  1  0
 26 27  1  6
 27 20  1  0
 28 26  1  0
 28 29  1  0
 30 28  2  0
M  END
$$$$
