WDT.pdb
     RDKit          3D

 30 31  0  0  1  0  0  0  0  0999 V2000
   26.8125  -26.1393  -19.5233 N   0  0  0  0  0  0  0  0  0  0  0  0
   26.3934  -27.4542  -20.0580 C   0  0  1  0  0  0  0  0  0  0  0  0
   27.6287  -27.9868  -20.7408 C   0  0  0  0  0  0  0  0  0  0  0  0
   27.9925  -27.2824  -21.9815 C   0  0  0  0  0  0  0  0  0  0  0  0
   28.9058  -26.2260  -22.0513 C   0  0  0  0  0  0  0  0  0  0  0  0
   29.0418  -25.8282  -23.3259 N   0  0  0  0  0  0  0  0  0  0  0  0
   28.2465  -26.5900  -24.0902 C   0  0  0  0  0  0  0  0  0  0  0  0
   27.9945  -26.6088  -25.4404 C   0  0  0  0  0  0  0  0  0  0  0  0
   27.1021  -27.5070  -25.9979 C   0  0  0  0  0  0  0  0  0  0  0  0
   26.4677  -28.3851  -25.1767 C   0  0  0  0  0  0  0  0  0  0  0  0
   26.6964  -28.3910  -23.8373 C   0  0  0  0  0  0  0  0  0  0  0  0
   27.5838  -27.5019  -23.2706 C   0  0  0  0  0  0  0  0  0  0  0  0
   25.8962  -28.3022  -18.9795 C   0  0  0  0  0  0  0  0  0  0  0  0
   26.2875  -28.0736  -17.7918 O   0  0  0  0  0  0  0  0  0  0  0  0
   24.9708  -29.3856  -19.2244 N   0  0  0  0  0  0  0  0  0  0  0  0
   24.5149  -30.1366  -18.0975 C   0  0  1  0  0  0  0  0  0  0  0  0
   23.0323  -30.5316  -18.2835 C   0  0  0  0  0  0  0  0  0  0  0  0
   22.5268  -31.1853  -17.0601 C   0  0  0  0  0  0  0  0  0  0  0  0
   22.7520  -30.6361  -15.9471 O   0  0  0  0  0  0  0  0  0  0  0  0
   25.2247  -31.4021  -17.8697 C   0  0  0  0  0  0  0  0  0  0  0  0
   25.6158  -32.1440  -18.7764 O   0  0  0  0  0  0  0  0  0  0  0  0
   21.8290  -32.3595  -17.1081 O   0  0  0  0  0  0  0  0  0  0  0  0
   28.2948  -31.8183  -15.3142 C   0  0  0  0  0  0  0  0  0  0  0  0
   27.1946  -32.8217  -15.0487 C   0  0  1  0  0  0  0  0  0  0  0  0
   26.4252  -32.2933  -14.0035 O   0  0  0  0  0  0  0  0  0  0  0  0
   26.2626  -32.9802  -16.2112 C   0  0  2  0  0  0  0  0  0  0  0  0
   25.4911  -31.8226  -16.5399 N   0  0  0  0  0  0  0  0  0  0  0  0
   25.3165  -34.0792  -15.8691 C   0  0  0  0  0  0  0  0  0  0  0  0
   25.7531  -35.4012  -15.6903 O   0  0  0  0  0  0  0  0  0  0  0  0
   24.0805  -33.8885  -15.7217 O   0  0  0  0  0  0  0  0  0  0  0  0
  2  1  1  1
  2 13  1  0
  2  3  1  0
  3  4  1  0
  4  5  2  0
  5  6  1  0
  7  6  1  0
  8  7  2  0
  9  8  1  0
 10 11  1  0
 10  9  2  0
 11 12  2  0
 12  4  1  0
 12  7  1  0
 13 14  2  0
 15 13  1  0
 15 16  1  0
 16 17  1  6
 17 18  1  0
 18 22  1  0
 19 18  2  0
 20 21  2  0
 20 16  1  0
 24 23  1  6
 24 26  1  0
 25 24  1  0
 26 27  1  1
 27 20  1  0
 28 26  1  0
 28 29  1  0
 30 28  2  0
M  END
$$$$
