WDT.pdb
     RDKit          3D

 30 31  0  0  1  0  0  0  0  0999 V2000
   27.3141  -21.1264  -15.2916 N   0  0  0  0  0  0  0  0  0  0  0  0
   26.3739  -21.2952  -14.1611 C   0  0  1  0  0  0  0  0  0  0  0  0
   26.6763  -20.1305  -13.2513 C   0  0  0  0  0  0  0  0  0  0  0  0
   27.7194  -20.3951  -12.2465 C   0  0  0  0  0  0  0  0  0  0  0  0
   29.0861  -20.4786  -12.5299 C   0  0  0  0  0  0  0  0  0  0  0  0
   29.7716  -20.6938  -11.3963 N   0  0  0  0  0  0  0  0  0  0  0  0
   28.8968  -20.7541  -10.3823 C   0  0  0  0  0  0  0  0  0  0  0  0
   29.0502  -20.9591   -9.0326 C   0  0  0  0  0  0  0  0  0  0  0  0
   27.9637  -20.9881   -8.1768 C   0  0  0  0  0  0  0  0  0  0  0  0
   26.7218  -20.8081   -8.6991 C   0  0  0  0  0  0  0  0  0  0  0  0
   26.5382  -20.6029  -10.0297 C   0  0  0  0  0  0  0  0  0  0  0  0
   27.6127  -20.5708  -10.8920 C   0  0  0  0  0  0  0  0  0  0  0  0
   24.9991  -21.3291  -14.6490 C   0  0  0  0  0  0  0  0  0  0  0  0
   24.5841  -20.3718  -15.3753 O   0  0  0  0  0  0  0  0  0  0  0  0
   24.1035  -22.4196  -14.3346 N   0  0  0  0  0  0  0  0  0  0  0  0
   22.7555  -22.3264  -14.7992 C   0  0  1  0  0  0  0  0  0  0  0  0
   22.3907  -23.5753  -15.6335 C   0  0  0  0  0  0  0  0  0  0  0  0
   21.1306  -23.3423  -16.3664 C   0  0  0  0  0  0  0  0  0  0  0  0
   20.6449  -24.2885  -17.0447 O   0  0  0  0  0  0  0  0  0  0  0  0
   21.7397  -22.2607  -13.7404 C   0  0  0  0  0  0  0  0  0  0  0  0
   21.4150  -23.2235  -13.0383 O   0  0  0  0  0  0  0  0  0  0  0  0
   20.4876  -22.1370  -16.3261 O   0  0  0  0  0  0  0  0  0  0  0  0
   21.6694  -20.2088  -10.6439 C   0  0  0  0  0  0  0  0  0  0  0  0
   20.4160  -19.8536  -11.4124 C   0  0  1  0  0  0  0  0  0  0  0  0
   20.6942  -18.6566  -12.0856 O   0  0  0  0  0  0  0  0  0  0  0  0
   20.0828  -20.8585  -12.4728 C   0  0  2  0  0  0  0  0  0  0  0  0
   21.0758  -21.0315  -13.4863 N   0  0  0  0  0  0  0  0  0  0  0  0
   18.8287  -20.4001  -13.1338 C   0  0  0  0  0  0  0  0  0  0  0  0
   17.6164  -20.3039  -12.4329 O   0  0  0  0  0  0  0  0  0  0  0  0
   18.7828  -20.0750  -14.3496 O   0  0  0  0  0  0  0  0  0  0  0  0
  2  1  1  6
  2 13  1  0
  2  3  1  0
  3  4  1  0
  4  5  2  0
  5  6  1  0
  7  6  1  0
  8  7  2  0
  9  8  1  0
 10 11  1  0
 10  9  2  0
 11 12  2  0
 12  4  1  0
 12  7  1  0
 13 14  2  0
 15 13  1  0
 15 16  1  0
 16 17  1  6
 17 18  1  0
 18 22  1  0
 19 18  2  0
 20 21  2  0
 20 16  1  0
 24 23  1  6
 24 26  1  0
 25 24  1  0
 26 27  1  6
 27 20  1  0
 28 26  1  0
 28 29  1  0
 30 28  2  0
M  END
$$$$
