WDT.pdb
     RDKit          3D

 30 31  0  0  1  0  0  0  0  0999 V2000
   26.6956  -22.2963  -12.2504 N   0  0  0  0  0  0  0  0  0  0  0  0
   25.7988  -21.5226  -11.3628 C   0  0  1  0  0  0  0  0  0  0  0  0
   26.5540  -20.2439  -11.0973 C   0  0  0  0  0  0  0  0  0  0  0  0
   27.6723  -20.3805  -10.1494 C   0  0  0  0  0  0  0  0  0  0  0  0
   28.9862  -20.6869  -10.5168 C   0  0  0  0  0  0  0  0  0  0  0  0
   29.7691  -20.7037   -9.4269 N   0  0  0  0  0  0  0  0  0  0  0  0
   29.0090  -20.4191   -8.3599 C   0  0  0  0  0  0  0  0  0  0  0  0
   29.2900  -20.3132   -7.0195 C   0  0  0  0  0  0  0  0  0  0  0  0
   28.3058  -20.0115   -6.0952 C   0  0  0  0  0  0  0  0  0  0  0  0
   27.0359  -19.8185   -6.5398 C   0  0  0  0  0  0  0  0  0  0  0  0
   26.7271  -19.9163   -7.8595 C   0  0  0  0  0  0  0  0  0  0  0  0
   27.6990  -20.2151   -8.7897 C   0  0  0  0  0  0  0  0  0  0  0  0
   24.5019  -21.3270  -12.0024 C   0  0  0  0  0  0  0  0  0  0  0  0
   24.4482  -21.2694  -13.2712 O   0  0  0  0  0  0  0  0  0  0  0  0
   23.2827  -21.2033  -11.2353 N   0  0  0  0  0  0  0  0  0  0  0  0
   22.0503  -21.1311  -11.9549 C   0  0  1  0  0  0  0  0  0  0  0  0
   20.8563  -21.2835  -10.9854 C   0  0  0  0  0  0  0  0  0  0  0  0
   19.6242  -21.5761  -11.7442 C   0  0  0  0  0  0  0  0  0  0  0  0
   19.7054  -21.7086  -12.9960 O   0  0  0  0  0  0  0  0  0  0  0  0
   21.8172  -19.8618  -12.6560 C   0  0  0  0  0  0  0  0  0  0  0  0
   21.9155  -18.7528  -12.1214 O   0  0  0  0  0  0  0  0  0  0  0  0
   18.4121  -21.7041  -11.1258 O   0  0  0  0  0  0  0  0  0  0  0  0
   23.6545  -18.2516  -15.5462 C   0  0  0  0  0  0  0  0  0  0  0  0
   22.2422  -18.5754  -15.9802 C   0  0  1  0  0  0  0  0  0  0  0  0
   22.2961  -19.8409  -16.5795 O   0  0  0  0  0  0  0  0  0  0  0  0
   21.2965  -18.7031  -14.8250 C   0  0  2  0  0  0  0  0  0  0  0  0
   21.4568  -19.8796  -14.0294 N   0  0  0  0  0  0  0  0  0  0  0  0
   19.9164  -18.7143  -15.3863 C   0  0  0  0  0  0  0  0  0  0  0  0
   19.1170  -19.8677  -15.3596 O   0  0  0  0  0  0  0  0  0  0  0  0
   19.3905  -17.6985  -15.9132 O   0  0  0  0  0  0  0  0  0  0  0  0
  2  1  1  6
  2 13  1  0
  2  3  1  0
  3  4  1  0
  4  5  2  0
  5  6  1  0
  7  6  1  0
  8  7  2  0
  9  8  1  0
 10 11  1  0
 10  9  2  0
 11 12  2  0
 12  4  1  0
 12  7  1  0
 13 14  2  0
 15 13  1  0
 15 16  1  0
 16 17  1  1
 17 18  1  0
 18 22  1  0
 19 18  2  0
 20 21  2  0
 20 16  1  0
 24 23  1  1
 24 26  1  0
 25 24  1  0
 26 27  1  6
 27 20  1  0
 28 26  1  0
 28 29  1  0
 30 28  2  0
M  END
$$$$
