VRQ.pdb
     RDKit          3D

 28 27  0  0  1  0  0  0  0  0999 V2000
    7.1624  -12.4785   20.0592 C   0  0  0  0  0  0  0  0  0  0  0  0
    8.3934  -13.3786   19.9723 C   0  0  2  0  0  0  0  0  0  0  0  0
    9.3712  -12.7895   18.9876 C   0  0  0  0  0  0  0  0  0  0  0  0
    7.9504  -14.7443   19.4492 C   0  0  2  0  0  0  0  0  0  0  0  0
    6.9474  -15.3145   20.3247 N   0  0  0  0  0  0  0  0  0  0  0  0
    9.1219  -15.6234   19.3450 C   0  0  0  0  0  0  0  0  0  0  0  0
    9.5877  -16.1143   20.4233 O   0  0  0  0  0  0  0  0  0  0  0  0
    8.9456  -15.4074   13.4377 N   0  0  0  0  0  0  0  0  0  0  0  0
   10.1962  -14.9871   12.9047 C   0  0  0  0  0  0  0  0  0  0  0  0
   10.2109  -14.0199   12.0528 N   0  0  0  0  0  0  0  0  0  0  0  0
   11.4245  -15.6138   13.2948 N   0  0  0  0  0  0  0  0  0  0  0  0
   11.3309  -16.6451   14.3063 C   0  0  0  0  0  0  0  0  0  0  0  0
   11.1162  -16.0598   15.6857 C   0  0  0  0  0  0  0  0  0  0  0  0
   11.0730  -17.2560   16.6461 C   0  0  0  0  0  0  0  0  0  0  0  0
   10.8722  -16.7922   18.0727 C   0  0  2  0  0  0  0  0  0  0  0  0
    9.7217  -15.9244   18.1112 N   0  0  0  0  0  0  0  0  0  0  0  0
   12.0804  -16.1017   18.5878 C   0  0  0  0  0  0  0  0  0  0  0  0
   12.1576  -14.8353   18.5011 O   0  0  0  0  0  0  0  0  0  0  0  0
   11.0943  -13.5703   11.7688 N   0  0  0  0  0  0  0  0  0  0  0  0
   13.6147  -15.9331   24.3911 C   0  0  0  0  0  0  0  0  0  0  0  0
   14.7362  -16.4597   23.6823 O   0  0  0  0  0  0  0  0  0  0  0  0
   15.4991  -17.2735   24.2846 C   0  0  0  0  0  0  0  0  0  0  0  0
   14.9639  -16.0509   22.2887 C   0  0  0  0  0  0  0  0  0  0  0  0
   13.9507  -16.4831   21.3120 C   0  0  1  0  0  0  0  0  0  0  0  0
   14.1980  -16.1749   19.8764 N   0  0  0  0  0  0  0  0  0  0  0  0
   13.0958  -16.8874   19.1544 C   0  0  0  0  0  0  0  0  0  0  0  0
   15.4491  -16.7171   19.3592 O   0  0  0  0  0  0  0  0  0  0  0  0
   16.6426  -16.0190   19.4519 O   0  0  0  0  0  0  0  0  0  0  0  0
  2  1  1  6
  2  3  1  0
  4  5  1  1
  4  2  1  0
  6  4  1  0
  6  7  2  0
  9 11  1  0
  9  8  1  0
 10  9  2  0
 12 11  1  0
 12 13  1  0
 13 14  1  0
 15 14  1  6
 15 17  1  0
 15 16  1  0
 16  6  1  0
 17 25  1  0
 18 17  2  0
 19 20  1  0
 20 22  1  0
 20 21  2  0
 22 23  1  0
 24 23  1  1
 24 26  1  0
 25 24  1  0
 26 28  2  0
 26 27  1  0
M  END
$$$$
