VRQ.pdb
     RDKit          3D

 28 27  0  0  1  0  0  0  0  0999 V2000
    7.7997  -12.7553   27.4401 C   0  0  0  0  0  0  0  0  0  0  0  0
    6.5996  -12.3597   26.5822 C   0  0  2  0  0  0  0  0  0  0  0  0
    5.6112  -11.6002   27.4302 C   0  0  0  0  0  0  0  0  0  0  0  0
    5.9240  -13.6380   26.0875 C   0  0  2  0  0  0  0  0  0  0  0  0
    5.6985  -14.5454   27.1936 N   0  0  0  0  0  0  0  0  0  0  0  0
    6.7652  -14.2598   25.0572 C   0  0  0  0  0  0  0  0  0  0  0  0
    7.4237  -15.2995   25.3828 O   0  0  0  0  0  0  0  0  0  0  0  0
    8.9083  -13.0423   17.3689 N   0  0  0  0  0  0  0  0  0  0  0  0
    8.7813  -14.4498   17.2019 C   0  0  0  0  0  0  0  0  0  0  0  0
    9.5082  -15.0343   16.3122 N   0  0  0  0  0  0  0  0  0  0  0  0
    7.8699  -15.2185   17.9969 N   0  0  0  0  0  0  0  0  0  0  0  0
    7.2621  -14.5393   19.1215 C   0  0  0  0  0  0  0  0  0  0  0  0
    8.1908  -14.4904   20.3158 C   0  0  0  0  0  0  0  0  0  0  0  0
    7.4114  -13.7684   21.4231 C   0  0  0  0  0  0  0  0  0  0  0  0
    7.6120  -14.4558   22.7566 C   0  0  2  0  0  0  0  0  0  0  0  0
    6.8544  -13.7426   23.7544 N   0  0  0  0  0  0  0  0  0  0  0  0
    9.0498  -14.5161   23.1185 C   0  0  0  0  0  0  0  0  0  0  0  0
    9.6271  -13.4683   23.5498 O   0  0  0  0  0  0  0  0  0  0  0  0
    9.4874  -16.0582   16.1926 N   0  0  0  0  0  0  0  0  0  0  0  0
   11.7956  -16.6480   28.6832 C   0  0  0  0  0  0  0  0  0  0  0  0
   10.8948  -16.4184   27.5999 O   0  0  0  0  0  0  0  0  0  0  0  0
    9.7082  -16.0637   27.8706 C   0  0  0  0  0  0  0  0  0  0  0  0
   11.3695  -16.5920   26.2195 C   0  0  0  0  0  0  0  0  0  0  0  0
   10.4019  -16.2756   25.1561 C   0  0  1  0  0  0  0  0  0  0  0  0
   10.9384  -15.9713   23.8008 N   0  0  0  0  0  0  0  0  0  0  0  0
    9.7156  -15.7421   22.9666 C   0  0  0  0  0  0  0  0  0  0  0  0
   11.6578  -17.0797   23.1840 O   0  0  0  0  0  0  0  0  0  0  0  0
   11.1280  -17.7950   22.1220 O   0  0  0  0  0  0  0  0  0  0  0  0
  2  1  1  1
  2  3  1  0
  4  5  1  1
  4  2  1  0
  6  4  1  0
  6  7  2  0
  9 11  1  0
  9  8  1  0
 10  9  2  0
 12 11  1  0
 12 13  1  0
 13 14  1  0
 15 14  1  6
 15 17  1  0
 15 16  1  0
 16  6  1  0
 17 25  1  0
 18 17  2  0
 19 20  1  0
 20 22  1  0
 20 21  2  0
 22 23  1  0
 24 23  1  1
 24 26  1  0
 25 24  1  0
 26 28  2  0
 26 27  1  0
M  END
$$$$
