VRQ.pdb
     RDKit          3D

 28 27  0  0  1  0  0  0  0  0999 V2000
    8.2172  -13.2689   21.0981 C   0  0  0  0  0  0  0  0  0  0  0  0
    8.4913  -12.8408   19.6578 C   0  0  2  0  0  0  0  0  0  0  0  0
    7.3400  -12.0043   19.1602 C   0  0  0  0  0  0  0  0  0  0  0  0
    8.5786  -14.0983   18.7940 C   0  0  2  0  0  0  0  0  0  0  0  0
    7.3900  -14.9077   18.9668 N   0  0  0  0  0  0  0  0  0  0  0  0
    9.7866  -14.8495   19.1575 C   0  0  0  0  0  0  0  0  0  0  0  0
    9.6538  -15.8226   19.9676 O   0  0  0  0  0  0  0  0  0  0  0  0
   17.1059  -14.6870   18.9617 N   0  0  0  0  0  0  0  0  0  0  0  0
   16.6617  -13.8863   17.8724 C   0  0  0  0  0  0  0  0  0  0  0  0
   17.0821  -12.6707   17.7875 N   0  0  0  0  0  0  0  0  0  0  0  0
   15.7658  -14.4029   16.8804 N   0  0  0  0  0  0  0  0  0  0  0  0
   15.4033  -15.7991   17.0017 C   0  0  0  0  0  0  0  0  0  0  0  0
   14.4642  -16.0357   18.1650 C   0  0  0  0  0  0  0  0  0  0  0  0
   13.2651  -15.1072   17.9307 C   0  0  0  0  0  0  0  0  0  0  0  0
   12.1861  -15.3526   18.9634 C   0  0  2  0  0  0  0  0  0  0  0  0
   11.0517  -14.5232   18.6419 N   0  0  0  0  0  0  0  0  0  0  0  0
   12.6815  -15.0733   20.3340 C   0  0  0  0  0  0  0  0  0  0  0  0
   12.8172  -13.8669   20.7126 O   0  0  0  0  0  0  0  0  0  0  0  0
   16.7473  -12.0394   17.0443 N   0  0  0  0  0  0  0  0  0  0  0  0
   11.0295  -18.6411   24.8996 C   0  0  0  0  0  0  0  0  0  0  0  0
   12.0422  -17.8953   25.5748 O   0  0  0  0  0  0  0  0  0  0  0  0
   12.2371  -18.1253   26.8061 C   0  0  0  0  0  0  0  0  0  0  0  0
   12.8231  -16.8998   24.8263 C   0  0  0  0  0  0  0  0  0  0  0  0
   12.5366  -16.8002   23.3857 C   0  0  1  0  0  0  0  0  0  0  0  0
   13.3759  -15.8746   22.5758 N   0  0  0  0  0  0  0  0  0  0  0  0
   12.9815  -16.1669   21.1607 C   0  0  0  0  0  0  0  0  0  0  0  0
   14.8076  -16.1360   22.6684 O   0  0  0  0  0  0  0  0  0  0  0  0
   15.5984  -15.5422   23.6392 O   0  0  0  0  0  0  0  0  0  0  0  0
  2  1  1  1
  2  3  1  0
  4  5  1  1
  4  2  1  0
  6  4  1  0
  6  7  2  0
  9 11  1  0
  9  8  1  0
 10  9  2  0
 12 11  1  0
 12 13  1  0
 13 14  1  0
 15 14  1  6
 15 17  1  0
 15 16  1  0
 16  6  1  0
 17 25  1  0
 18 17  2  0
 19 20  1  0
 20 22  1  0
 20 21  2  0
 22 23  1  0
 24 23  1  1
 24 26  1  0
 25 24  1  0
 26 28  2  0
 26 27  1  0
M  END
$$$$
