VRQ.pdb
     RDKit          3D

 28 27  0  0  1  0  0  0  0  0999 V2000
    8.1523  -12.3708   19.9179 C   0  0  0  0  0  0  0  0  0  0  0  0
    8.0122  -13.6415   19.0821 C   0  0  2  0  0  0  0  0  0  0  0  0
    6.5678  -14.0732   19.0723 C   0  0  0  0  0  0  0  0  0  0  0  0
    8.8373  -14.7432   19.7460 C   0  0  2  0  0  0  0  0  0  0  0  0
    8.8738  -15.9192   18.9014 N   0  0  0  0  0  0  0  0  0  0  0  0
    8.2583  -15.0537   21.0591 C   0  0  0  0  0  0  0  0  0  0  0  0
    8.2023  -14.1134   21.9155 O   0  0  0  0  0  0  0  0  0  0  0  0
    6.8103  -21.8345   25.4016 N   0  0  0  0  0  0  0  0  0  0  0  0
    7.1306  -20.9145   26.4389 C   0  0  0  0  0  0  0  0  0  0  0  0
    7.1916  -21.3475   27.6515 N   0  0  0  0  0  0  0  0  0  0  0  0
    7.3835  -19.5316   26.1609 N   0  0  0  0  0  0  0  0  0  0  0  0
    6.7000  -18.9673   25.0164 C   0  0  0  0  0  0  0  0  0  0  0  0
    7.6661  -18.6053   23.9086 C   0  0  0  0  0  0  0  0  0  0  0  0
    6.8077  -18.0209   22.7788 C   0  0  0  0  0  0  0  0  0  0  0  0
    7.0691  -16.5389   22.6174 C   0  0  2  0  0  0  0  0  0  0  0  0
    7.7782  -16.3343   21.3791 N   0  0  0  0  0  0  0  0  0  0  0  0
    7.8360  -16.0007   23.7681 C   0  0  0  0  0  0  0  0  0  0  0  0
    9.0726  -16.2771   23.8754 O   0  0  0  0  0  0  0  0  0  0  0  0
    7.3939  -20.7113   28.4373 N   0  0  0  0  0  0  0  0  0  0  0  0
    5.1024  -11.4762   26.6780 C   0  0  0  0  0  0  0  0  0  0  0  0
    6.4785  -11.0984   26.7147 O   0  0  0  0  0  0  0  0  0  0  0  0
    6.7618   -9.8835   26.9403 C   0  0  0  0  0  0  0  0  0  0  0  0
    7.5121  -12.1213   26.4990 C   0  0  0  0  0  0  0  0  0  0  0  0
    7.0319  -13.5020   26.3249 C   0  0  2  0  0  0  0  0  0  0  0  0
    7.9728  -14.4919   25.7315 N   0  0  0  0  0  0  0  0  0  0  0  0
    7.1532  -15.2011   24.6975 C   0  0  0  0  0  0  0  0  0  0  0  0
    8.4300  -15.5123   26.6678 O   0  0  0  0  0  0  0  0  0  0  0  0
    9.5900  -15.3571   27.4099 O   0  0  0  0  0  0  0  0  0  0  0  0
  2  1  1  1
  2  3  1  0
  4  5  1  6
  4  2  1  0
  6  4  1  0
  6  7  2  0
  9 11  1  0
  9  8  1  0
 10  9  2  0
 12 11  1  0
 12 13  1  0
 13 14  1  0
 15 14  1  1
 15 17  1  0
 15 16  1  0
 16  6  1  0
 17 25  1  0
 18 17  2  0
 19 20  1  0
 20 22  1  0
 20 21  2  0
 22 23  1  0
 24 23  1  6
 24 26  1  0
 25 24  1  0
 26 28  2  0
 26 27  1  0
M  END
$$$$
