VRQ.pdb
     RDKit          3D

 28 27  0  0  1  0  0  0  0  0999 V2000
    9.9727  -12.9885   19.8106 C   0  0  0  0  0  0  0  0  0  0  0  0
    8.5864  -13.0717   19.1747 C   0  0  2  0  0  0  0  0  0  0  0  0
    7.6031  -12.3076   20.0245 C   0  0  0  0  0  0  0  0  0  0  0  0
    8.1597  -14.5388   19.1496 C   0  0  2  0  0  0  0  0  0  0  0  0
    6.9869  -14.7049   18.3161 N   0  0  0  0  0  0  0  0  0  0  0  0
    7.8996  -14.9883   20.5230 C   0  0  0  0  0  0  0  0  0  0  0  0
    7.0874  -14.3025   21.2235 O   0  0  0  0  0  0  0  0  0  0  0  0
    3.6643  -19.1966   21.7675 N   0  0  0  0  0  0  0  0  0  0  0  0
    4.0150  -19.6694   20.4720 C   0  0  0  0  0  0  0  0  0  0  0  0
    3.0843  -19.8028   19.5902 N   0  0  0  0  0  0  0  0  0  0  0  0
    5.3693  -19.9954   20.1356 N   0  0  0  0  0  0  0  0  0  0  0  0
    6.3749  -19.6828   21.1289 C   0  0  0  0  0  0  0  0  0  0  0  0
    6.6705  -18.1991   21.1799 C   0  0  0  0  0  0  0  0  0  0  0  0
    7.7026  -18.0160   22.3007 C   0  0  0  0  0  0  0  0  0  0  0  0
    8.1518  -16.5732   22.3866 C   0  0  2  0  0  0  0  0  0  0  0  0
    8.5138  -16.1300   21.0635 N   0  0  0  0  0  0  0  0  0  0  0  0
    9.2858  -16.4193   23.3311 C   0  0  0  0  0  0  0  0  0  0  0  0
   10.4737  -16.5885   22.9098 O   0  0  0  0  0  0  0  0  0  0  0  0
    3.2958  -20.1229   18.6332 N   0  0  0  0  0  0  0  0  0  0  0  0
    8.5380  -13.6251   28.8762 C   0  0  0  0  0  0  0  0  0  0  0  0
    9.8364  -14.1976   29.0321 O   0  0  0  0  0  0  0  0  0  0  0  0
   10.4112  -14.0849   30.1564 C   0  0  0  0  0  0  0  0  0  0  0  0
   10.4555  -14.8981   27.8977 C   0  0  0  0  0  0  0  0  0  0  0  0
    9.5940  -15.1218   26.7250 C   0  0  1  0  0  0  0  0  0  0  0  0
   10.1460  -15.9343   25.6060 N   0  0  0  0  0  0  0  0  0  0  0  0
    8.9923  -16.0899   24.6633 C   0  0  0  0  0  0  0  0  0  0  0  0
   10.5488  -17.2816   25.9923 O   0  0  0  0  0  0  0  0  0  0  0  0
    9.6659  -18.3489   25.9521 O   0  0  0  0  0  0  0  0  0  0  0  0
  2  1  1  1
  2  3  1  0
  4  5  1  6
  4  2  1  0
  6  4  1  0
  6  7  2  0
  9 11  1  0
  9  8  1  0
 10  9  2  0
 12 11  1  0
 12 13  1  0
 13 14  1  0
 15 14  1  6
 15 17  1  0
 15 16  1  0
 16  6  1  0
 17 25  1  0
 18 17  2  0
 19 20  1  0
 20 22  1  0
 20 21  2  0
 22 23  1  0
 24 23  1  6
 24 26  1  0
 25 24  1  0
 26 28  2  0
 26 27  1  0
M  END
$$$$
