VRQ.pdb
     RDKit          3D

 28 27  0  0  1  0  0  0  0  0999 V2000
    5.7046  -12.5584   24.5287 C   0  0  0  0  0  0  0  0  0  0  0  0
    6.0543  -12.7194   26.0068 C   0  0  2  0  0  0  0  0  0  0  0  0
    5.8880  -11.3932   26.7042 C   0  0  0  0  0  0  0  0  0  0  0  0
    7.5218  -13.1336   26.1081 C   0  0  2  0  0  0  0  0  0  0  0  0
    8.3639  -12.1588   25.4460 N   0  0  0  0  0  0  0  0  0  0  0  0
    7.6884  -14.4659   25.5140 C   0  0  0  0  0  0  0  0  0  0  0  0
    6.9675  -15.4097   25.9725 O   0  0  0  0  0  0  0  0  0  0  0  0
    9.2549  -13.4981   18.3736 N   0  0  0  0  0  0  0  0  0  0  0  0
    8.0909  -13.0794   19.0768 C   0  0  0  0  0  0  0  0  0  0  0  0
    7.7900  -11.8260   19.0826 N   0  0  0  0  0  0  0  0  0  0  0  0
    7.2577  -14.0169   19.7701 N   0  0  0  0  0  0  0  0  0  0  0  0
    7.9318  -15.1126   20.4340 C   0  0  0  0  0  0  0  0  0  0  0  0
    7.8789  -14.9732   21.9404 C   0  0  0  0  0  0  0  0  0  0  0  0
    8.8385  -16.0357   22.4931 C   0  0  0  0  0  0  0  0  0  0  0  0
    8.7990  -16.0598   24.0059 C   0  0  2  0  0  0  0  0  0  0  0  0
    8.6038  -14.7116   24.4774 N   0  0  0  0  0  0  0  0  0  0  0  0
   10.0410  -16.6478   24.5660 C   0  0  0  0  0  0  0  0  0  0  0  0
   11.0921  -15.9350   24.6314 O   0  0  0  0  0  0  0  0  0  0  0  0
    6.9510  -11.4793   19.5714 N   0  0  0  0  0  0  0  0  0  0  0  0
    8.9172  -19.7546   28.7998 C   0  0  0  0  0  0  0  0  0  0  0  0
   10.3216  -19.8521   29.0359 O   0  0  0  0  0  0  0  0  0  0  0  0
   10.7242  -19.9393   30.2348 C   0  0  0  0  0  0  0  0  0  0  0  0
   11.2455  -19.8552   27.8925 C   0  0  0  0  0  0  0  0  0  0  0  0
   10.6427  -19.6174   26.5707 C   0  0  2  0  0  0  0  0  0  0  0  0
   11.1878  -18.4987   25.7529 N   0  0  0  0  0  0  0  0  0  0  0  0
    9.9988  -17.9805   25.0036 C   0  0  0  0  0  0  0  0  0  0  0  0
   12.1598  -18.9155   24.7488 O   0  0  0  0  0  0  0  0  0  0  0  0
   13.5049  -19.0608   25.0487 O   0  0  0  0  0  0  0  0  0  0  0  0
  2  1  1  6
  2  3  1  0
  4  5  1  6
  4  2  1  0
  6  4  1  0
  6  7  2  0
  9 11  1  0
  9  8  1  0
 10  9  2  0
 12 11  1  0
 12 13  1  0
 13 14  1  0
 15 14  1  6
 15 17  1  0
 15 16  1  0
 16  6  1  0
 17 25  1  0
 18 17  2  0
 19 20  1  0
 20 22  1  0
 20 21  2  0
 22 23  1  0
 24 23  1  1
 24 26  1  0
 25 24  1  0
 26 28  2  0
 26 27  1  0
M  END
$$$$
