VRQ.pdb
     RDKit          3D

 28 27  0  0  1  0  0  0  0  0999 V2000
    6.7581  -13.5963   19.8393 C   0  0  0  0  0  0  0  0  0  0  0  0
    8.0976  -12.8738   19.9685 C   0  0  2  0  0  0  0  0  0  0  0  0
    8.2403  -11.8858   18.8387 C   0  0  0  0  0  0  0  0  0  0  0  0
    9.2134  -13.9103   19.8426 C   0  0  2  0  0  0  0  0  0  0  0  0
    9.1445  -14.5660   18.5530 N   0  0  0  0  0  0  0  0  0  0  0  0
    9.0937  -14.8823   20.9365 C   0  0  0  0  0  0  0  0  0  0  0  0
    9.1345  -14.4362   22.1281 O   0  0  0  0  0  0  0  0  0  0  0  0
    7.4593  -19.0987   17.2243 N   0  0  0  0  0  0  0  0  0  0  0  0
    8.2284  -20.2931   17.3062 C   0  0  0  0  0  0  0  0  0  0  0  0
    8.6530  -20.8305   16.2142 N   0  0  0  0  0  0  0  0  0  0  0  0
    8.5351  -20.9007   18.5673 N   0  0  0  0  0  0  0  0  0  0  0  0
    8.0397  -20.2246   19.7477 C   0  0  0  0  0  0  0  0  0  0  0  0
    8.8765  -19.0111   20.0916 C   0  0  0  0  0  0  0  0  0  0  0  0
    8.2943  -18.4579   21.3992 C   0  0  0  0  0  0  0  0  0  0  0  0
    9.0005  -17.1818   21.8039 C   0  0  2  0  0  0  0  0  0  0  0  0
    8.9391  -16.2580   20.6989 N   0  0  0  0  0  0  0  0  0  0  0  0
   10.4052  -17.4482   22.2008 C   0  0  0  0  0  0  0  0  0  0  0  0
   11.2777  -17.6559   21.2992 O   0  0  0  0  0  0  0  0  0  0  0  0
    9.1714  -21.7217   16.2227 N   0  0  0  0  0  0  0  0  0  0  0  0
   14.6932  -16.0432   21.4966 C   0  0  0  0  0  0  0  0  0  0  0  0
   15.1553  -15.9891   22.8461 O   0  0  0  0  0  0  0  0  0  0  0  0
   16.3950  -15.8196   23.0500 C   0  0  0  0  0  0  0  0  0  0  0  0
   14.1876  -16.1233   23.9446 C   0  0  0  0  0  0  0  0  0  0  0  0
   12.7863  -16.3445   23.5512 C   0  0  1  0  0  0  0  0  0  0  0  0
   12.1488  -17.6281   23.9551 N   0  0  0  0  0  0  0  0  0  0  0  0
   10.7110  -17.4592   23.5704 C   0  0  0  0  0  0  0  0  0  0  0  0
   12.1661  -17.8737   25.3925 O   0  0  0  0  0  0  0  0  0  0  0  0
   13.2219  -18.5242   26.0108 O   0  0  0  0  0  0  0  0  0  0  0  0
  2  1  1  6
  2  3  1  0
  4  5  1  6
  4  2  1  0
  6  4  1  0
  6  7  2  0
  9 11  1  0
  9  8  1  0
 10  9  2  0
 12 11  1  0
 12 13  1  0
 13 14  1  0
 15 14  1  6
 15 17  1  0
 15 16  1  0
 16  6  1  0
 17 25  1  0
 18 17  2  0
 19 20  1  0
 20 22  1  0
 20 21  2  0
 22 23  1  0
 24 23  1  6
 24 26  1  0
 25 24  1  0
 26 28  2  0
 26 27  1  0
M  END
$$$$
