VRQ.pdb
     RDKit          3D

 28 27  0  0  1  0  0  0  0  0999 V2000
    5.8772  -11.0243   26.6222 C   0  0  0  0  0  0  0  0  0  0  0  0
    6.8126  -12.1639   26.2229 C   0  0  2  0  0  0  0  0  0  0  0  0
    7.7002  -11.7057   25.0937 C   0  0  0  0  0  0  0  0  0  0  0  0
    5.9598  -13.3280   25.7203 C   0  0  2  0  0  0  0  0  0  0  0  0
    5.0403  -13.7576   26.7535 N   0  0  0  0  0  0  0  0  0  0  0  0
    6.8409  -14.4273   25.3068 C   0  0  0  0  0  0  0  0  0  0  0  0
    7.4676  -15.0553   26.2198 O   0  0  0  0  0  0  0  0  0  0  0  0
   10.0993  -13.9515   19.4274 N   0  0  0  0  0  0  0  0  0  0  0  0
    8.9348  -13.6132   18.6829 C   0  0  0  0  0  0  0  0  0  0  0  0
    9.0360  -12.7385   17.7415 N   0  0  0  0  0  0  0  0  0  0  0  0
    7.6670  -14.2216   18.9591 N   0  0  0  0  0  0  0  0  0  0  0  0
    7.6766  -15.3542   19.8605 C   0  0  0  0  0  0  0  0  0  0  0  0
    7.8904  -14.9261   21.2966 C   0  0  0  0  0  0  0  0  0  0  0  0
    7.6972  -16.1910   22.1438 C   0  0  0  0  0  0  0  0  0  0  0  0
    7.8734  -15.8838   23.6153 C   0  0  2  0  0  0  0  0  0  0  0  0
    7.0008  -14.7890   23.9591 N   0  0  0  0  0  0  0  0  0  0  0  0
    9.2868  -15.5604   23.9307 C   0  0  0  0  0  0  0  0  0  0  0  0
    9.7317  -14.3976   23.6715 O   0  0  0  0  0  0  0  0  0  0  0  0
    8.2387  -12.5213   17.1248 N   0  0  0  0  0  0  0  0  0  0  0  0
   10.0387  -17.2472   28.7742 C   0  0  0  0  0  0  0  0  0  0  0  0
   10.4986  -15.9033   28.6325 O   0  0  0  0  0  0  0  0  0  0  0  0
   10.2344  -15.0776   29.5573 C   0  0  0  0  0  0  0  0  0  0  0  0
   11.2620  -15.5261   27.4342 C   0  0  0  0  0  0  0  0  0  0  0  0
   11.4481  -16.5814   26.4247 C   0  0  2  0  0  0  0  0  0  0  0  0
   11.4419  -16.1767   24.9917 N   0  0  0  0  0  0  0  0  0  0  0  0
   10.0785  -16.5651   24.5080 C   0  0  0  0  0  0  0  0  0  0  0  0
   12.3970  -16.9050   24.1646 O   0  0  0  0  0  0  0  0  0  0  0  0
   13.7564  -16.6403   24.2115 O   0  0  0  0  0  0  0  0  0  0  0  0
  2  1  1  6
  2  3  1  0
  4  5  1  1
  4  2  1  0
  6  4  1  0
  6  7  2  0
  9 11  1  0
  9  8  1  0
 10  9  2  0
 12 11  1  0
 12 13  1  0
 13 14  1  0
 15 14  1  6
 15 17  1  0
 15 16  1  0
 16  6  1  0
 17 25  1  0
 18 17  2  0
 19 20  1  0
 20 22  1  0
 20 21  2  0
 22 23  1  0
 24 23  1  1
 24 26  1  0
 25 24  1  0
 26 28  2  0
 26 27  1  0
M  END
$$$$
