VRQ.pdb
     RDKit          3D

 28 27  0  0  1  0  0  0  0  0999 V2000
    7.8804  -12.1952   27.3237 C   0  0  0  0  0  0  0  0  0  0  0  0
    6.8360  -11.8328   26.2698 C   0  0  2  0  0  0  0  0  0  0  0  0
    5.9210  -10.7694   26.8219 C   0  0  0  0  0  0  0  0  0  0  0  0
    6.0010  -13.0786   25.9766 C   0  0  2  0  0  0  0  0  0  0  0  0
    5.5565  -13.6859   27.2141 N   0  0  0  0  0  0  0  0  0  0  0  0
    6.8021  -14.0200   25.1842 C   0  0  0  0  0  0  0  0  0  0  0  0
    7.2954  -15.0268   25.7872 O   0  0  0  0  0  0  0  0  0  0  0  0
   10.5473  -13.7502   18.7414 N   0  0  0  0  0  0  0  0  0  0  0  0
    9.3146  -14.1099   18.1284 C   0  0  0  0  0  0  0  0  0  0  0  0
    8.7240  -13.2464   17.3753 N   0  0  0  0  0  0  0  0  0  0  0  0
    8.7262  -15.4006   18.3321 N   0  0  0  0  0  0  0  0  0  0  0  0
    7.7819  -15.5153   19.4233 C   0  0  0  0  0  0  0  0  0  0  0  0
    8.4761  -15.5110   20.7684 C   0  0  0  0  0  0  0  0  0  0  0  0
    7.7521  -14.4515   21.6099 C   0  0  0  0  0  0  0  0  0  0  0  0
    7.8049  -14.8057   23.0805 C   0  0  2  0  0  0  0  0  0  0  0  0
    7.0281  -13.8350   23.8103 N   0  0  0  0  0  0  0  0  0  0  0  0
    9.2043  -14.8497   23.5721 C   0  0  0  0  0  0  0  0  0  0  0  0
    9.8325  -13.7599   23.7590 O   0  0  0  0  0  0  0  0  0  0  0  0
    7.8548  -13.4805   16.8726 N   0  0  0  0  0  0  0  0  0  0  0  0
   10.5107  -14.9764   28.7288 C   0  0  0  0  0  0  0  0  0  0  0  0
   10.5160  -16.0880   27.8333 O   0  0  0  0  0  0  0  0  0  0  0  0
    9.6268  -16.9800   27.9780 C   0  0  0  0  0  0  0  0  0  0  0  0
   11.5377  -16.1583   26.7786 C   0  0  0  0  0  0  0  0  0  0  0  0
   11.1585  -16.8844   25.5554 C   0  0  2  0  0  0  0  0  0  0  0  0
   11.2049  -16.1401   24.2666 N   0  0  0  0  0  0  0  0  0  0  0  0
    9.7782  -16.1077   23.8114 C   0  0  0  0  0  0  0  0  0  0  0  0
   11.9586  -16.8160   23.2169 O   0  0  0  0  0  0  0  0  0  0  0  0
   13.3379  -16.7176   23.1276 O   0  0  0  0  0  0  0  0  0  0  0  0
  2  1  1  1
  2  3  1  0
  4  5  1  1
  4  2  1  0
  6  4  1  0
  6  7  2  0
  9 11  1  0
  9  8  1  0
 10  9  2  0
 12 11  1  0
 12 13  1  0
 13 14  1  0
 15 14  1  6
 15 17  1  0
 15 16  1  0
 16  6  1  0
 17 25  1  0
 18 17  2  0
 19 20  1  0
 20 22  1  0
 20 21  2  0
 22 23  1  0
 24 23  1  1
 24 26  1  0
 25 24  1  0
 26 28  2  0
 26 27  1  0
M  END
$$$$
