VRQ.pdb
     RDKit          3D

 28 27  0  0  1  0  0  0  0  0999 V2000
    9.3947  -12.6987   19.9235 C   0  0  0  0  0  0  0  0  0  0  0  0
    7.8791  -12.8852   19.8902 C   0  0  2  0  0  0  0  0  0  0  0  0
    7.3517  -12.9216   21.3021 C   0  0  0  0  0  0  0  0  0  0  0  0
    7.5777  -14.2305   19.2311 C   0  0  2  0  0  0  0  0  0  0  0  0
    6.1467  -14.4384   19.1492 N   0  0  0  0  0  0  0  0  0  0  0  0
    8.2236  -15.3001   20.0022 C   0  0  0  0  0  0  0  0  0  0  0  0
    7.5469  -15.8480   20.9309 O   0  0  0  0  0  0  0  0  0  0  0  0
   14.0804  -18.5256   17.2190 N   0  0  0  0  0  0  0  0  0  0  0  0
   14.5395  -19.1956   18.3875 C   0  0  0  0  0  0  0  0  0  0  0  0
   15.8094  -19.2827   18.5908 N   0  0  0  0  0  0  0  0  0  0  0  0
   13.6244  -19.7678   19.3302 N   0  0  0  0  0  0  0  0  0  0  0  0
   12.2169  -19.6668   19.0074 C   0  0  0  0  0  0  0  0  0  0  0  0
   11.4435  -18.9460   20.0907 C   0  0  0  0  0  0  0  0  0  0  0  0
   10.8997  -17.6683   19.4374 C   0  0  0  0  0  0  0  0  0  0  0  0
   10.0646  -16.8763   20.4204 C   0  0  2  0  0  0  0  0  0  0  0  0
    9.5387  -15.7186   19.7411 N   0  0  0  0  0  0  0  0  0  0  0  0
   10.8626  -16.4829   21.6080 C   0  0  0  0  0  0  0  0  0  0  0  0
   11.7995  -15.6335   21.4744 O   0  0  0  0  0  0  0  0  0  0  0  0
   16.1881  -19.8105   19.3915 N   0  0  0  0  0  0  0  0  0  0  0  0
    9.4632  -18.6012   27.3664 C   0  0  0  0  0  0  0  0  0  0  0  0
   10.7564  -18.0361   27.5807 O   0  0  0  0  0  0  0  0  0  0  0  0
   11.2656  -18.1237   28.7384 C   0  0  0  0  0  0  0  0  0  0  0  0
   11.4515  -17.3836   26.4618 C   0  0  0  0  0  0  0  0  0  0  0  0
   10.7748  -17.4409   25.1557 C   0  0  1  0  0  0  0  0  0  0  0  0
   11.4394  -16.7735   24.0023 N   0  0  0  0  0  0  0  0  0  0  0  0
   10.5432  -17.0737   22.8402 C   0  0  0  0  0  0  0  0  0  0  0  0
   12.7472  -17.3260   23.6693 O   0  0  0  0  0  0  0  0  0  0  0  0
   12.8876  -18.5815   23.0999 O   0  0  0  0  0  0  0  0  0  0  0  0
  2  1  1  1
  2  3  1  0
  4  5  1  1
  4  2  1  0
  6  4  1  0
  6  7  2  0
  9 11  1  0
  9  8  1  0
 10  9  2  0
 12 11  1  0
 12 13  1  0
 13 14  1  0
 15 14  1  6
 15 17  1  0
 15 16  1  0
 16  6  1  0
 17 25  1  0
 18 17  2  0
 19 20  1  0
 20 22  1  0
 20 21  2  0
 22 23  1  0
 24 23  1  1
 24 26  1  0
 25 24  1  0
 26 28  2  0
 26 27  1  0
M  END
$$$$
