TMC.pdb
     RDKit          3D

 22 21  0  0  1  0  0  0  0  0999 V2000
   26.1670  -20.6490  -17.7191 C   0  0  0  0  0  0  0  0  0  0  0  0
   27.3881  -20.0700  -17.0302 C   0  0  1  0  0  0  0  0  0  0  0  0
   27.0305  -18.8924  -16.4055 O   0  0  0  0  0  0  0  0  0  0  0  0
   27.9192  -21.1126  -16.0720 C   0  0  2  0  0  0  0  0  0  0  0  0
   28.2274  -22.3171  -16.8103 N   0  0  0  0  0  0  0  0  0  0  0  0
   26.8740  -21.3692  -15.0401 C   0  0  0  0  0  0  0  0  0  0  0  0
   25.8924  -22.1362  -15.2584 O   0  0  0  0  0  0  0  0  0  0  0  0
   24.5131  -21.1328   -7.4961 C   0  0  0  0  0  0  0  0  0  0  0  0
   25.7691  -20.5264   -8.6862 S   0  0  0  0  0  0  0  0  0  0  0  0
   25.2743  -20.9924  -10.3764 C   0  0  0  0  0  0  0  0  0  0  0  0
   26.3352  -20.6149  -11.3776 C   0  0  0  0  0  0  0  0  0  0  0  0
   25.9020  -20.9727  -12.7400 C   0  0  2  0  0  0  0  0  0  0  0  0
   26.9169  -20.7709  -13.7549 N   0  0  0  0  0  0  0  0  0  0  0  0
   24.6434  -20.3837  -13.2118 C   0  0  0  0  0  0  0  0  0  0  0  0
   24.4497  -19.1767  -13.5077 O   0  0  0  0  0  0  0  0  0  0  0  0
   23.4749  -21.2167  -13.3737 N   0  0  0  0  0  0  0  0  0  0  0  0
   22.1901  -20.6876  -13.6992 C   0  0  1  0  0  0  0  0  0  0  0  0
   21.7143  -21.0934  -15.0800 C   0  0  0  0  0  0  0  0  0  0  0  0
   23.0544  -20.7887  -16.2951 S   0  0  0  0  0  0  0  0  0  0  0  0
   21.1307  -21.0234  -12.7334 C   0  0  0  0  0  0  0  0  0  0  0  0
   21.2886  -21.8852  -11.6713 O   0  0  0  0  0  0  0  0  0  0  0  0
   20.0060  -20.4790  -12.8994 O   0  0  0  0  0  0  0  0  0  0  0  0
  2  1  1  1
  2  4  1  0
  3  2  1  0
  4  6  1  0
  4  5  1  6
  6  7  2  0
  8  9  1  0
  9 10  1  0
 10 11  1  0
 12 11  1  1
 12 14  1  0
 13 12  1  0
 13  6  1  0
 14 15  2  0
 14 16  1  0
 16 17  1  0
 17 20  1  0
 17 18  1  6
 19 18  1  0
 20 22  2  0
 20 21  1  0
M  END
$$$$
