TMC.pdb
     RDKit          3D

 22 21  0  0  1  0  0  0  0  0999 V2000
   24.3683   -9.8007  -21.0574 C   0  0  0  0  0  0  0  0  0  0  0  0
   23.7275  -11.1519  -20.8038 C   0  0  1  0  0  0  0  0  0  0  0  0
   23.7505  -11.8824  -21.9746 O   0  0  0  0  0  0  0  0  0  0  0  0
   24.4797  -11.8183  -19.6737 C   0  0  2  0  0  0  0  0  0  0  0  0
   23.9683  -13.1589  -19.4938 N   0  0  0  0  0  0  0  0  0  0  0  0
   24.2855  -11.0009  -18.4419 C   0  0  0  0  0  0  0  0  0  0  0  0
   23.1617  -10.9114  -17.8687 O   0  0  0  0  0  0  0  0  0  0  0  0
   28.2134  -13.3840  -15.1174 C   0  0  0  0  0  0  0  0  0  0  0  0
   27.8459  -11.8507  -16.0531 S   0  0  0  0  0  0  0  0  0  0  0  0
   26.6346  -10.8536  -15.1271 C   0  0  0  0  0  0  0  0  0  0  0  0
   26.4261   -9.5098  -15.7761 C   0  0  0  0  0  0  0  0  0  0  0  0
   25.2089   -9.5272  -16.6068 C   0  0  2  0  0  0  0  0  0  0  0  0
   25.3459  -10.2764  -17.8399 N   0  0  0  0  0  0  0  0  0  0  0  0
   24.5959   -8.2292  -16.9121 C   0  0  0  0  0  0  0  0  0  0  0  0
   24.9579   -7.4265  -17.8101 O   0  0  0  0  0  0  0  0  0  0  0  0
   23.4629   -7.7697  -16.1437 N   0  0  0  0  0  0  0  0  0  0  0  0
   22.7474   -6.5770  -16.4634 C   0  0  1  0  0  0  0  0  0  0  0  0
   21.5251   -6.8312  -17.3229 C   0  0  0  0  0  0  0  0  0  0  0  0
   20.4656   -8.0894  -16.5105 S   0  0  0  0  0  0  0  0  0  0  0  0
   22.3279   -5.7866  -15.2941 C   0  0  0  0  0  0  0  0  0  0  0  0
   21.6804   -4.5736  -15.3646 O   0  0  0  0  0  0  0  0  0  0  0  0
   22.5841   -6.2623  -14.1552 O   0  0  0  0  0  0  0  0  0  0  0  0
  2  1  1  6
  2  4  1  0
  3  2  1  0
  4  6  1  0
  4  5  1  1
  6  7  2  0
  8  9  1  0
  9 10  1  0
 10 11  1  0
 12 11  1  6
 12 14  1  0
 13 12  1  0
 13  6  1  0
 14 15  2  0
 14 16  1  0
 16 17  1  0
 17 20  1  0
 17 18  1  1
 19 18  1  0
 20 22  2  0
 20 21  1  0
M  END
$$$$
