TMC.pdb
     RDKit          3D

 22 21  0  0  1  0  0  0  0  0999 V2000
   21.8592  -14.7466  -19.7873 C   0  0  0  0  0  0  0  0  0  0  0  0
   22.0904  -14.2247  -18.3819 C   0  0  1  0  0  0  0  0  0  0  0  0
   22.7909  -15.1731  -17.6644 O   0  0  0  0  0  0  0  0  0  0  0  0
   22.8198  -12.9044  -18.4905 C   0  0  2  0  0  0  0  0  0  0  0  0
   24.1069  -13.1272  -19.1108 N   0  0  0  0  0  0  0  0  0  0  0  0
   22.9765  -12.3468  -17.1166 C   0  0  0  0  0  0  0  0  0  0  0  0
   22.0187  -12.3230  -16.2910 O   0  0  0  0  0  0  0  0  0  0  0  0
   28.5522  -11.7974  -16.2862 C   0  0  0  0  0  0  0  0  0  0  0  0
   27.3609  -13.1870  -16.1789 S   0  0  0  0  0  0  0  0  0  0  0  0
   26.1787  -12.8663  -14.8304 C   0  0  0  0  0  0  0  0  0  0  0  0
   25.7651  -11.4176  -14.8023 C   0  0  0  0  0  0  0  0  0  0  0  0
   24.3946  -11.2678  -15.3230 C   0  0  2  0  0  0  0  0  0  0  0  0
   24.2053  -11.8111  -16.6533 N   0  0  0  0  0  0  0  0  0  0  0  0
   23.8121   -9.9215  -15.2789 C   0  0  0  0  0  0  0  0  0  0  0  0
   23.7779   -9.1561  -14.2815 O   0  0  0  0  0  0  0  0  0  0  0  0
   23.2028   -9.3618  -16.4625 N   0  0  0  0  0  0  0  0  0  0  0  0
   22.7013   -8.0266  -16.5134 C   0  0  1  0  0  0  0  0  0  0  0  0
   22.3911   -7.5632  -17.9229 C   0  0  0  0  0  0  0  0  0  0  0  0
   21.8459   -5.8122  -17.8776 S   0  0  0  0  0  0  0  0  0  0  0  0
   21.5090   -7.7918  -15.6820 C   0  0  0  0  0  0  0  0  0  0  0  0
   21.3364   -6.7038  -14.8561 O   0  0  0  0  0  0  0  0  0  0  0  0
   20.5894   -8.6520  -15.7375 O   0  0  0  0  0  0  0  0  0  0  0  0
  2  1  1  6
  2  4  1  0
  3  2  1  0
  4  6  1  0
  4  5  1  1
  6  7  2  0
  8  9  1  0
  9 10  1  0
 10 11  1  0
 12 11  1  6
 12 14  1  0
 13 12  1  0
 13  6  1  0
 14 15  2  0
 14 16  1  0
 16 17  1  0
 17 20  1  0
 17 18  1  6
 19 18  1  0
 20 22  2  0
 20 21  1  0
M  END
$$$$
