TMC.pdb
     RDKit          3D

 22 21  0  0  1  0  0  0  0  0999 V2000
   17.9451  -11.3580  -14.6309 C   0  0  0  0  0  0  0  0  0  0  0  0
   16.5429  -11.9350  -14.6742 C   0  0  1  0  0  0  0  0  0  0  0  0
   16.6089  -13.2302  -15.1463 O   0  0  0  0  0  0  0  0  0  0  0  0
   15.9579  -11.8396  -13.2829 C   0  0  2  0  0  0  0  0  0  0  0  0
   14.6779  -12.5120  -13.2633 N   0  0  0  0  0  0  0  0  0  0  0  0
   15.8100  -10.3961  -12.9400 C   0  0  0  0  0  0  0  0  0  0  0  0
   15.0446   -9.6286  -13.5916 O   0  0  0  0  0  0  0  0  0  0  0  0
   13.4810   -6.9886   -7.1202 C   0  0  0  0  0  0  0  0  0  0  0  0
   15.1652   -7.3845   -7.7273 S   0  0  0  0  0  0  0  0  0  0  0  0
   15.0937   -7.7521   -9.5101 C   0  0  0  0  0  0  0  0  0  0  0  0
   16.4437   -8.1677  -10.0347 C   0  0  0  0  0  0  0  0  0  0  0  0
   16.3760   -8.4055  -11.4875 C   0  0  2  0  0  0  0  0  0  0  0  0
   16.5165   -9.7976  -11.8656 N   0  0  0  0  0  0  0  0  0  0  0  0
   17.2623   -7.5979  -12.3336 C   0  0  0  0  0  0  0  0  0  0  0  0
   18.4038   -7.9278  -12.7461 O   0  0  0  0  0  0  0  0  0  0  0  0
   16.8428   -6.2869  -12.7703 N   0  0  0  0  0  0  0  0  0  0  0  0
   17.5879   -5.5121  -13.7091 C   0  0  1  0  0  0  0  0  0  0  0  0
   17.8953   -6.2654  -14.9880 C   0  0  0  0  0  0  0  0  0  0  0  0
   18.8256   -5.1688  -16.1270 S   0  0  0  0  0  0  0  0  0  0  0  0
   16.9625   -4.2297  -14.0727 C   0  0  0  0  0  0  0  0  0  0  0  0
   17.6576   -3.0728  -14.3448 O   0  0  0  0  0  0  0  0  0  0  0  0
   15.7040   -4.1999  -14.1363 O   0  0  0  0  0  0  0  0  0  0  0  0
  2  1  1  1
  2  4  1  0
  3  2  1  0
  4  6  1  0
  4  5  1  6
  6  7  2  0
  8  9  1  0
  9 10  1  0
 10 11  1  0
 12 11  1  1
 12 14  1  0
 13 12  1  0
 13  6  1  0
 14 15  2  0
 14 16  1  0
 16 17  1  0
 17 20  1  0
 17 18  1  6
 19 18  1  0
 20 22  2  0
 20 21  1  0
M  END
$$$$
