TMC.pdb
     RDKit          3D

 22 21  0  0  1  0  0  0  0  0999 V2000
   20.3250   -8.9497  -20.1194 C   0  0  0  0  0  0  0  0  0  0  0  0
   19.7551  -10.2004  -19.4777 C   0  0  1  0  0  0  0  0  0  0  0  0
   18.8707  -10.7893  -20.3585 O   0  0  0  0  0  0  0  0  0  0  0  0
   20.9120  -11.1011  -19.1071 C   0  0  2  0  0  0  0  0  0  0  0  0
   20.3917  -12.3545  -18.6080 N   0  0  0  0  0  0  0  0  0  0  0  0
   21.7257  -10.4070  -18.0682 C   0  0  0  0  0  0  0  0  0  0  0  0
   21.3099  -10.2557  -16.8835 O   0  0  0  0  0  0  0  0  0  0  0  0
   27.3581  -11.0863  -15.3877 C   0  0  0  0  0  0  0  0  0  0  0  0
   26.1490   -9.7579  -15.0199 S   0  0  0  0  0  0  0  0  0  0  0  0
   26.0231   -8.6418  -16.4542 C   0  0  0  0  0  0  0  0  0  0  0  0
   25.2692   -9.2922  -17.5854 C   0  0  0  0  0  0  0  0  0  0  0  0
   23.8167   -9.1705  -17.3674 C   0  0  2  0  0  0  0  0  0  0  0  0
   23.0116   -9.8761  -18.3445 N   0  0  0  0  0  0  0  0  0  0  0  0
   23.2812   -7.8133  -17.2105 C   0  0  0  0  0  0  0  0  0  0  0  0
   23.1104   -6.9685  -18.1265 O   0  0  0  0  0  0  0  0  0  0  0  0
   22.8931   -7.3394  -15.9028 N   0  0  0  0  0  0  0  0  0  0  0  0
   22.3233   -6.0485  -15.6884 C   0  0  1  0  0  0  0  0  0  0  0  0
   21.1636   -6.0672  -14.7126 C   0  0  0  0  0  0  0  0  0  0  0  0
   19.7833   -7.0379  -15.4323 S   0  0  0  0  0  0  0  0  0  0  0  0
   23.2829   -5.0263  -15.2389 C   0  0  0  0  0  0  0  0  0  0  0  0
   22.9589   -3.7137  -14.9788 O   0  0  0  0  0  0  0  0  0  0  0  0
   24.4804   -5.3884  -15.0849 O   0  0  0  0  0  0  0  0  0  0  0  0
  2  1  1  6
  2  4  1  0
  3  2  1  0
  4  6  1  0
  4  5  1  1
  6  7  2  0
  8  9  1  0
  9 10  1  0
 10 11  1  0
 12 11  1  6
 12 14  1  0
 13 12  1  0
 13  6  1  0
 14 15  2  0
 14 16  1  0
 16 17  1  0
 17 20  1  0
 17 18  1  1
 19 18  1  0
 20 22  2  0
 20 21  1  0
M  END
$$$$
