TMC.pdb
     RDKit          3D

 22 21  0  0  1  0  0  0  0  0999 V2000
   28.3841  -18.4262  -16.1336 C   0  0  0  0  0  0  0  0  0  0  0  0
   27.2503  -19.1147  -15.3979 C   0  0  1  0  0  0  0  0  0  0  0  0
   26.1850  -19.2653  -16.2625 O   0  0  0  0  0  0  0  0  0  0  0  0
   27.7728  -20.4302  -14.8653 C   0  0  2  0  0  0  0  0  0  0  0  0
   27.9826  -21.3364  -15.9725 N   0  0  0  0  0  0  0  0  0  0  0  0
   26.7670  -20.9758  -13.9095 C   0  0  0  0  0  0  0  0  0  0  0  0
   25.9993  -21.9319  -14.2195 O   0  0  0  0  0  0  0  0  0  0  0  0
   26.6714  -20.0177   -7.4416 C   0  0  0  0  0  0  0  0  0  0  0  0
   24.9351  -20.5593   -7.6728 S   0  0  0  0  0  0  0  0  0  0  0  0
   24.6696  -21.0073   -9.4185 C   0  0  0  0  0  0  0  0  0  0  0  0
   25.8076  -20.5286  -10.2824 C   0  0  0  0  0  0  0  0  0  0  0  0
   25.5527  -20.8640  -11.6946 C   0  0  2  0  0  0  0  0  0  0  0  0
   26.6103  -20.4575  -12.5986 N   0  0  0  0  0  0  0  0  0  0  0  0
   24.2659  -20.4365  -12.2559 C   0  0  0  0  0  0  0  0  0  0  0  0
   23.9738  -19.2800  -12.6549 O   0  0  0  0  0  0  0  0  0  0  0  0
   23.1877  -21.3876  -12.3905 N   0  0  0  0  0  0  0  0  0  0  0  0
   21.9171  -21.0399  -12.9395 C   0  0  1  0  0  0  0  0  0  0  0  0
   21.1996  -22.2186  -13.5664 C   0  0  0  0  0  0  0  0  0  0  0  0
   20.6848  -23.3846  -12.2470 S   0  0  0  0  0  0  0  0  0  0  0  0
   20.9966  -20.3986  -11.9859 C   0  0  0  0  0  0  0  0  0  0  0  0
   19.7976  -19.8165  -12.3310 O   0  0  0  0  0  0  0  0  0  0  0  0
   21.3395  -20.3873  -10.7730 O   0  0  0  0  0  0  0  0  0  0  0  0
  2  1  1  6
  2  4  1  0
  3  2  1  0
  4  6  1  0
  4  5  1  6
  6  7  2  0
  8  9  1  0
  9 10  1  0
 10 11  1  0
 12 11  1  1
 12 14  1  0
 13 12  1  0
 13  6  1  0
 14 15  2  0
 14 16  1  0
 16 17  1  0
 17 20  1  0
 17 18  1  1
 19 18  1  0
 20 22  2  0
 20 21  1  0
M  END
$$$$
