VDP.pdb
     RDKit          3D

 23 23  0  0  1  0  0  0  0  0999 V2000
    8.7525  -12.8902   18.2343 C   0  0  0  0  0  0  0  0  0  0  0  0
    7.8991  -13.3420   19.4119 C   0  0  2  0  0  0  0  0  0  0  0  0
    8.1531  -12.3681   20.5414 C   0  0  0  0  0  0  0  0  0  0  0  0
    8.3666  -14.7317   19.7895 C   0  0  2  0  0  0  0  0  0  0  0  0
    8.1972  -15.6755   18.7238 N   0  0  0  0  0  0  0  0  0  0  0  0
    7.6913  -15.2046   21.0379 C   0  0  0  0  0  0  0  0  0  0  0  0
    6.5982  -15.8223   21.0228 O   0  0  0  0  0  0  0  0  0  0  0  0
    8.2629  -14.9761   22.3438 N   0  0  0  0  0  0  0  0  0  0  0  0
    7.6453  -15.4498   23.5414 C   0  0  1  0  0  0  0  0  0  0  0  0
    7.7576  -16.9632   23.6845 C   0  0  0  0  0  0  0  0  0  0  0  0
    7.0889  -17.4579   24.8907 C   0  0  0  0  0  0  0  0  0  0  0  0
    7.7008  -17.8878   25.8985 O   0  0  0  0  0  0  0  0  0  0  0  0
    8.2885  -14.8768   24.7343 C   0  0  0  0  0  0  0  0  0  0  0  0
    9.5436  -15.2358   24.8252 O   0  0  0  0  0  0  0  0  0  0  0  0
    5.7023  -17.4580   24.9385 O   0  0  0  0  0  0  0  0  0  0  0  0
    7.7371  -14.0424   25.7212 N   0  0  0  0  0  0  0  0  0  0  0  0
    6.3689  -13.6992   25.9465 C   0  0  0  0  0  0  0  0  0  0  0  0
    6.3580  -12.9139   27.2747 C   0  0  0  0  0  0  0  0  0  0  0  0
    7.7224  -12.2082   27.1435 C   0  0  0  0  0  0  0  0  0  0  0  0
    8.5492  -13.3908   26.7241 C   0  0  1  0  0  0  0  0  0  0  0  0
    8.7223  -14.2680   27.9155 C   0  0  0  0  0  0  0  0  0  0  0  0
    8.1898  -15.5344   28.0026 O   0  0  0  0  0  0  0  0  0  0  0  0
    9.3800  -13.8273   28.8708 O   0  0  0  0  0  0  0  0  0  0  0  0
  2  3  1  1
  2  1  1  0
  4  5  1  6
  4  2  1  0
  6  4  1  0
  7  6  2  0
  8  6  1  0
  9  8  1  0
  9 10  1  1
 10 11  1  0
 11 12  2  0
 13  9  1  0
 13 14  2  0
 15 11  1  0
 16 13  1  0
 17 16  1  0
 18 17  1  0
 19 20  1  0
 19 18  1  0
 20 16  1  0
 21 22  1  0
 20 21  1  1
 23 21  2  0
M  END
$$$$
