VDP.pdb
     RDKit          3D

 23 23  0  0  1  0  0  0  0  0999 V2000
    7.0607  -12.6631   20.0237 C   0  0  0  0  0  0  0  0  0  0  0  0
    8.5089  -13.1296   19.9601 C   0  0  2  0  0  0  0  0  0  0  0  0
    9.0487  -12.7131   18.6096 C   0  0  0  0  0  0  0  0  0  0  0  0
    8.4936  -14.6383   20.0871 C   0  0  2  0  0  0  0  0  0  0  0  0
    7.8184  -15.2736   18.9936 N   0  0  0  0  0  0  0  0  0  0  0  0
    7.9088  -15.0611   21.3976 C   0  0  0  0  0  0  0  0  0  0  0  0
    6.6705  -15.1200   21.5978 O   0  0  0  0  0  0  0  0  0  0  0  0
    8.7419  -15.4291   22.5177 N   0  0  0  0  0  0  0  0  0  0  0  0
    8.1989  -15.7705   23.7938 C   0  0  1  0  0  0  0  0  0  0  0  0
    8.5466  -17.1974   24.2017 C   0  0  0  0  0  0  0  0  0  0  0  0
    7.9584  -18.1914   23.3002 C   0  0  0  0  0  0  0  0  0  0  0  0
    8.6262  -19.0701   22.7029 O   0  0  0  0  0  0  0  0  0  0  0  0
    8.7366  -14.8997   24.8510 C   0  0  0  0  0  0  0  0  0  0  0  0
   10.0442  -14.9359   24.8873 O   0  0  0  0  0  0  0  0  0  0  0  0
    6.5881  -18.1749   23.0834 O   0  0  0  0  0  0  0  0  0  0  0  0
    8.0439  -14.0887   25.7657 N   0  0  0  0  0  0  0  0  0  0  0  0
    6.6411  -13.8368   25.8610 C   0  0  0  0  0  0  0  0  0  0  0  0
    6.4580  -13.0317   27.1646 C   0  0  0  0  0  0  0  0  0  0  0  0
    7.7782  -12.2361   27.1386 C   0  0  0  0  0  0  0  0  0  0  0  0
    8.7169  -13.3659   26.8214 C   0  0  1  0  0  0  0  0  0  0  0  0
    8.8406  -14.2087   28.0434 C   0  0  0  0  0  0  0  0  0  0  0  0
    9.5578  -13.8250   29.1540 O   0  0  0  0  0  0  0  0  0  0  0  0
    8.2659  -15.3082   28.0514 O   0  0  0  0  0  0  0  0  0  0  0  0
  2  3  1  6
  2  1  1  0
  4  5  1  6
  4  2  1  0
  6  4  1  0
  7  6  2  0
  8  6  1  0
  9  8  1  0
  9 10  1  1
 10 11  1  0
 11 12  2  0
 13  9  1  0
 13 14  2  0
 15 11  1  0
 16 13  1  0
 17 16  1  0
 18 17  1  0
 19 20  1  0
 19 18  1  0
 20 16  1  0
 21 22  1  0
 20 21  1  1
 23 21  2  0
M  END
$$$$
