VDP.pdb
     RDKit          3D

 23 23  0  0  1  0  0  0  0  0999 V2000
    8.2741  -13.0162   18.4560 C   0  0  0  0  0  0  0  0  0  0  0  0
    7.6213  -13.3204   19.7977 C   0  0  2  0  0  0  0  0  0  0  0  0
    8.2733  -12.4173   20.8215 C   0  0  0  0  0  0  0  0  0  0  0  0
    7.9068  -14.7744   20.1090 C   0  0  2  0  0  0  0  0  0  0  0  0
    7.4136  -15.6592   19.0947 N   0  0  0  0  0  0  0  0  0  0  0  0
    7.3731  -15.1502   21.4551 C   0  0  0  0  0  0  0  0  0  0  0  0
    6.1455  -15.2860   21.6818 O   0  0  0  0  0  0  0  0  0  0  0  0
    8.2466  -15.3805   22.5813 N   0  0  0  0  0  0  0  0  0  0  0  0
    7.7519  -15.7579   23.8669 C   0  0  1  0  0  0  0  0  0  0  0  0
    7.7552  -17.2697   24.0613 C   0  0  0  0  0  0  0  0  0  0  0  0
    7.2524  -17.6609   25.3808 C   0  0  0  0  0  0  0  0  0  0  0  0
    6.0601  -17.5121   25.7429 O   0  0  0  0  0  0  0  0  0  0  0  0
    8.5896  -15.2048   24.9427 C   0  0  0  0  0  0  0  0  0  0  0  0
    9.8429  -15.5559   24.8073 O   0  0  0  0  0  0  0  0  0  0  0  0
    8.1297  -18.2292   26.2931 O   0  0  0  0  0  0  0  0  0  0  0  0
    8.2140  -14.3954   26.0281 N   0  0  0  0  0  0  0  0  0  0  0  0
    6.9046  -14.0254   26.4629 C   0  0  0  0  0  0  0  0  0  0  0  0
    7.1115  -13.2926   27.8050 C   0  0  0  0  0  0  0  0  0  0  0  0
    8.4640  -12.6185   27.5003 C   0  0  0  0  0  0  0  0  0  0  0  0
    9.1833  -13.8051   26.9236 C   0  0  1  0  0  0  0  0  0  0  0  0
    9.4997  -14.7324   28.0456 C   0  0  0  0  0  0  0  0  0  0  0  0
   10.4291  -14.4466   29.0200 O   0  0  0  0  0  0  0  0  0  0  0  0
    8.8909  -15.8123   28.0961 O   0  0  0  0  0  0  0  0  0  0  0  0
  2  3  1  1
  2  1  1  0
  4  5  1  6
  4  2  1  0
  6  4  1  0
  7  6  2  0
  8  6  1  0
  9  8  1  0
  9 10  1  6
 10 11  1  0
 11 12  2  0
 13  9  1  0
 13 14  2  0
 15 11  1  0
 16 13  1  0
 17 16  1  0
 18 17  1  0
 19 20  1  0
 19 18  1  0
 20 16  1  0
 21 22  1  0
 20 21  1  1
 23 21  2  0
M  END
$$$$
