VDP.pdb
     RDKit          3D

 23 23  0  0  1  0  0  0  0  0999 V2000
    6.6671  -14.0473   19.9106 C   0  0  0  0  0  0  0  0  0  0  0  0
    7.8491  -13.0911   19.9967 C   0  0  2  0  0  0  0  0  0  0  0  0
    8.2872  -12.8007   18.5781 C   0  0  0  0  0  0  0  0  0  0  0  0
    8.9440  -13.8086   20.7576 C   0  0  2  0  0  0  0  0  0  0  0  0
    9.4205  -14.9707   20.0667 N   0  0  0  0  0  0  0  0  0  0  0  0
    8.4978  -14.1531   22.1434 C   0  0  0  0  0  0  0  0  0  0  0  0
    8.0386  -13.2964   22.9384 O   0  0  0  0  0  0  0  0  0  0  0  0
    8.5699  -15.5027   22.6510 N   0  0  0  0  0  0  0  0  0  0  0  0
    8.0746  -15.8607   23.9419 C   0  0  1  0  0  0  0  0  0  0  0  0
    7.8087  -17.3569   24.0594 C   0  0  0  0  0  0  0  0  0  0  0  0
    7.3994  -17.7435   25.4121 C   0  0  0  0  0  0  0  0  0  0  0  0
    6.2592  -17.5176   25.8851 O   0  0  0  0  0  0  0  0  0  0  0  0
    9.0489  -15.5339   24.9950 C   0  0  0  0  0  0  0  0  0  0  0  0
   10.1952  -16.1324   24.7945 O   0  0  0  0  0  0  0  0  0  0  0  0
    8.3107  -18.3968   26.2293 O   0  0  0  0  0  0  0  0  0  0  0  0
    8.8915  -14.7050   26.1186 N   0  0  0  0  0  0  0  0  0  0  0  0
    7.7698  -13.9046   26.4953 C   0  0  0  0  0  0  0  0  0  0  0  0
    8.1011  -13.3752   27.9063 C   0  0  0  0  0  0  0  0  0  0  0  0
    9.6281  -13.2293   27.7518 C   0  0  0  0  0  0  0  0  0  0  0  0
    9.9203  -14.5631   27.1243 C   0  0  1  0  0  0  0  0  0  0  0  0
    9.7736  -15.6027   28.1808 C   0  0  0  0  0  0  0  0  0  0  0  0
    8.7795  -16.5550   28.1681 O   0  0  0  0  0  0  0  0  0  0  0  0
   10.5917  -15.6026   29.1136 O   0  0  0  0  0  0  0  0  0  0  0  0
  2  3  1  6
  2  1  1  0
  4  5  1  6
  4  2  1  0
  6  4  1  0
  7  6  2  0
  8  6  1  0
  9  8  1  0
  9 10  1  6
 10 11  1  0
 11 12  2  0
 13  9  1  0
 13 14  2  0
 15 11  1  0
 16 13  1  0
 17 16  1  0
 18 17  1  0
 19 20  1  0
 19 18  1  0
 20 16  1  0
 21 22  1  0
 20 21  1  1
 23 21  2  0
M  END
$$$$
