VDP.pdb
     RDKit          3D

 23 23  0  0  1  0  0  0  0  0999 V2000
    7.2368  -12.6360   19.6912 C   0  0  0  0  0  0  0  0  0  0  0  0
    8.6544  -13.1860   19.7729 C   0  0  2  0  0  0  0  0  0  0  0  0
    9.3625  -12.7743   18.5009 C   0  0  0  0  0  0  0  0  0  0  0  0
    8.5400  -14.6934   19.8566 C   0  0  2  0  0  0  0  0  0  0  0  0
    7.9466  -15.2641   18.6830 N   0  0  0  0  0  0  0  0  0  0  0  0
    7.7994  -15.1082   21.0885 C   0  0  0  0  0  0  0  0  0  0  0  0
    6.6337  -15.5736   21.0520 O   0  0  0  0  0  0  0  0  0  0  0  0
    8.3876  -14.9963   22.4022 N   0  0  0  0  0  0  0  0  0  0  0  0
    7.7207  -15.4544   23.5792 C   0  0  1  0  0  0  0  0  0  0  0  0
    7.7958  -16.9694   23.7278 C   0  0  0  0  0  0  0  0  0  0  0  0
    7.0232  -17.4537   24.8748 C   0  0  0  0  0  0  0  0  0  0  0  0
    7.5336  -17.7484   25.9827 O   0  0  0  0  0  0  0  0  0  0  0  0
    8.3362  -14.8929   24.7920 C   0  0  0  0  0  0  0  0  0  0  0  0
    9.5912  -15.2463   24.9042 O   0  0  0  0  0  0  0  0  0  0  0  0
    5.6495  -17.6005   24.7463 O   0  0  0  0  0  0  0  0  0  0  0  0
    7.7601  -14.0740   25.7778 N   0  0  0  0  0  0  0  0  0  0  0  0
    6.3818  -13.7764   26.0065 C   0  0  0  0  0  0  0  0  0  0  0  0
    6.3486  -12.9869   27.3319 C   0  0  0  0  0  0  0  0  0  0  0  0
    7.6878  -12.2360   27.1934 C   0  0  0  0  0  0  0  0  0  0  0  0
    8.5529  -13.3914   26.7756 C   0  0  1  0  0  0  0  0  0  0  0  0
    8.7596  -14.2577   27.9696 C   0  0  0  0  0  0  0  0  0  0  0  0
    8.2519  -15.5331   28.0721 O   0  0  0  0  0  0  0  0  0  0  0  0
    9.4230  -13.7990   28.9124 O   0  0  0  0  0  0  0  0  0  0  0  0
  2  3  1  6
  2  1  1  0
  4  5  1  6
  4  2  1  0
  6  4  1  0
  7  6  2  0
  8  6  1  0
  9  8  1  0
  9 10  1  1
 10 11  1  0
 11 12  2  0
 13  9  1  0
 13 14  2  0
 15 11  1  0
 16 13  1  0
 17 16  1  0
 18 17  1  0
 19 20  1  0
 19 18  1  0
 20 16  1  0
 21 22  1  0
 20 21  1  1
 23 21  2  0
M  END
$$$$
