VDP.pdb
     RDKit          3D

 23 23  0  0  1  0  0  0  0  0999 V2000
    7.1620  -12.6608   20.8780 C   0  0  0  0  0  0  0  0  0  0  0  0
    8.4531  -13.2823   20.3625 C   0  0  2  0  0  0  0  0  0  0  0  0
    8.6717  -12.7507   18.9630 C   0  0  0  0  0  0  0  0  0  0  0  0
    8.2431  -14.7816   20.3376 C   0  0  2  0  0  0  0  0  0  0  0  0
    7.1843  -15.1722   19.4536 N   0  0  0  0  0  0  0  0  0  0  0  0
    8.0155  -15.3149   21.7167 C   0  0  0  0  0  0  0  0  0  0  0  0
    6.8735  -15.6099   22.1474 O   0  0  0  0  0  0  0  0  0  0  0  0
    9.1055  -15.5230   22.6401 N   0  0  0  0  0  0  0  0  0  0  0  0
    8.9185  -16.1346   23.9171 C   0  0  1  0  0  0  0  0  0  0  0  0
    9.6058  -17.4920   24.0090 C   0  0  0  0  0  0  0  0  0  0  0  0
    9.3908  -18.1364   25.3072 C   0  0  0  0  0  0  0  0  0  0  0  0
    8.2952  -18.1199   25.9189 O   0  0  0  0  0  0  0  0  0  0  0  0
    9.4946  -15.3103   24.9913 C   0  0  0  0  0  0  0  0  0  0  0  0
   10.8027  -15.3204   24.9585 O   0  0  0  0  0  0  0  0  0  0  0  0
   10.4465  -18.8067   25.9081 O   0  0  0  0  0  0  0  0  0  0  0  0
    8.8357  -14.5644   25.9831 N   0  0  0  0  0  0  0  0  0  0  0  0
    7.4344  -14.4352   26.2288 C   0  0  0  0  0  0  0  0  0  0  0  0
    7.3223  -13.6518   27.5534 C   0  0  0  0  0  0  0  0  0  0  0  0
    8.5590  -12.7446   27.3972 C   0  0  0  0  0  0  0  0  0  0  0  0
    9.5524  -13.7881   26.9699 C   0  0  1  0  0  0  0  0  0  0  0  0
    9.8771  -14.6196   28.1624 C   0  0  0  0  0  0  0  0  0  0  0  0
    9.4989  -15.9372   28.2878 O   0  0  0  0  0  0  0  0  0  0  0  0
   10.5201  -14.0903   29.0820 O   0  0  0  0  0  0  0  0  0  0  0  0
  2  3  1  6
  2  1  1  0
  4  5  1  6
  4  2  1  0
  6  4  1  0
  7  6  2  0
  8  6  1  0
  9  8  1  0
  9 10  1  6
 10 11  1  0
 11 12  2  0
 13  9  1  0
 13 14  2  0
 15 11  1  0
 16 13  1  0
 17 16  1  0
 18 17  1  0
 19 20  1  0
 19 18  1  0
 20 16  1  0
 21 22  1  0
 20 21  1  1
 23 21  2  0
M  END
$$$$
