VDP.pdb
     RDKit          3D

 23 23  0  0  1  0  0  0  0  0999 V2000
    8.6970  -13.1236   18.2620 C   0  0  0  0  0  0  0  0  0  0  0  0
    7.9585  -13.3818   19.5685 C   0  0  2  0  0  0  0  0  0  0  0  0
    8.5626  -12.4625   20.6071 C   0  0  0  0  0  0  0  0  0  0  0  0
    8.1991  -14.8315   19.9335 C   0  0  2  0  0  0  0  0  0  0  0  0
    7.7800  -15.7335   18.9012 N   0  0  0  0  0  0  0  0  0  0  0  0
    7.5516  -15.1711   21.2387 C   0  0  0  0  0  0  0  0  0  0  0  0
    6.3198  -15.3900   21.3456 O   0  0  0  0  0  0  0  0  0  0  0  0
    8.3128  -15.2679   22.4617 N   0  0  0  0  0  0  0  0  0  0  0  0
    7.7136  -15.6252   23.7080 C   0  0  1  0  0  0  0  0  0  0  0  0
    7.7481  -17.1296   23.9503 C   0  0  0  0  0  0  0  0  0  0  0  0
    7.1464  -17.4990   25.2342 C   0  0  0  0  0  0  0  0  0  0  0  0
    5.9096  -17.5051   25.4467 O   0  0  0  0  0  0  0  0  0  0  0  0
    8.4295  -15.0118   24.8377 C   0  0  0  0  0  0  0  0  0  0  0  0
    9.6791  -15.3976   24.8838 O   0  0  0  0  0  0  0  0  0  0  0  0
    7.9756  -17.8653   26.2846 O   0  0  0  0  0  0  0  0  0  0  0  0
    7.9481  -14.1173   25.8085 N   0  0  0  0  0  0  0  0  0  0  0  0
    6.6153  -13.6467   26.0152 C   0  0  0  0  0  0  0  0  0  0  0  0
    6.6644  -12.8463   27.3335 C   0  0  0  0  0  0  0  0  0  0  0  0
    8.0891  -12.2710   27.2080 C   0  0  0  0  0  0  0  0  0  0  0  0
    8.8074  -13.5301   26.8119 C   0  0  1  0  0  0  0  0  0  0  0  0
    8.8878  -14.4037   28.0157 C   0  0  0  0  0  0  0  0  0  0  0  0
    9.6851  -14.1193   29.1012 O   0  0  0  0  0  0  0  0  0  0  0  0
    8.1990  -15.4355   28.0318 O   0  0  0  0  0  0  0  0  0  0  0  0
  2  3  1  1
  2  1  1  0
  4  5  1  6
  4  2  1  0
  6  4  1  0
  7  6  2  0
  8  6  1  0
  9  8  1  0
  9 10  1  1
 10 11  1  0
 11 12  2  0
 13  9  1  0
 13 14  2  0
 15 11  1  0
 16 13  1  0
 17 16  1  0
 18 17  1  0
 19 20  1  0
 19 18  1  0
 20 16  1  0
 21 22  1  0
 20 21  1  1
 23 21  2  0
M  END
$$$$
