VDP.pdb
     RDKit          3D

 23 23  0  0  1  0  0  0  0  0999 V2000
    7.1989  -12.6217   19.8232 C   0  0  0  0  0  0  0  0  0  0  0  0
    8.5975  -13.2215   19.8801 C   0  0  2  0  0  0  0  0  0  0  0  0
    9.3146  -12.7913   18.6194 C   0  0  0  0  0  0  0  0  0  0  0  0
    8.4324  -14.7262   19.9139 C   0  0  2  0  0  0  0  0  0  0  0  0
    7.7603  -15.2301   18.7523 N   0  0  0  0  0  0  0  0  0  0  0  0
    7.7401  -15.1625   21.1663 C   0  0  0  0  0  0  0  0  0  0  0  0
    6.5454  -15.5488   21.1789 O   0  0  0  0  0  0  0  0  0  0  0  0
    8.4120  -15.1647   22.4442 N   0  0  0  0  0  0  0  0  0  0  0  0
    7.7619  -15.5744   23.6481 C   0  0  1  0  0  0  0  0  0  0  0  0
    7.8258  -17.0839   23.8491 C   0  0  0  0  0  0  0  0  0  0  0  0
    7.1557  -17.5088   25.0809 C   0  0  0  0  0  0  0  0  0  0  0  0
    5.9703  -17.2115   25.3660 O   0  0  0  0  0  0  0  0  0  0  0  0
    8.4038  -14.9763   24.8294 C   0  0  0  0  0  0  0  0  0  0  0  0
    9.6592  -15.3321   24.9284 O   0  0  0  0  0  0  0  0  0  0  0  0
    7.8560  -18.2836   25.9943 O   0  0  0  0  0  0  0  0  0  0  0  0
    7.8509  -14.1225   25.7987 N   0  0  0  0  0  0  0  0  0  0  0  0
    6.4889  -13.7330   25.9819 C   0  0  0  0  0  0  0  0  0  0  0  0
    6.4639  -12.9460   27.3090 C   0  0  0  0  0  0  0  0  0  0  0  0
    7.8547  -12.2870   27.2195 C   0  0  0  0  0  0  0  0  0  0  0  0
    8.6535  -13.4974   26.8259 C   0  0  1  0  0  0  0  0  0  0  0  0
    8.7604  -14.3784   28.0223 C   0  0  0  0  0  0  0  0  0  0  0  0
    7.7566  -14.5067   28.9556 O   0  0  0  0  0  0  0  0  0  0  0  0
    9.8085  -15.0240   28.1766 O   0  0  0  0  0  0  0  0  0  0  0  0
  2  3  1  6
  2  1  1  0
  4  5  1  6
  4  2  1  0
  6  4  1  0
  7  6  2  0
  8  6  1  0
  9  8  1  0
  9 10  1  1
 10 11  1  0
 11 12  2  0
 13  9  1  0
 13 14  2  0
 15 11  1  0
 16 13  1  0
 17 16  1  0
 18 17  1  0
 19 20  1  0
 19 18  1  0
 20 16  1  0
 21 22  1  0
 20 21  1  1
 23 21  2  0
M  END
$$$$
