VDP.pdb
     RDKit          3D

 23 23  0  0  1  0  0  0  0  0999 V2000
    8.4975  -13.0921   18.4612 C   0  0  0  0  0  0  0  0  0  0  0  0
    7.7268  -13.4166   19.7339 C   0  0  2  0  0  0  0  0  0  0  0  0
    8.2963  -12.5436   20.8303 C   0  0  0  0  0  0  0  0  0  0  0  0
    7.9689  -14.8803   20.0365 C   0  0  2  0  0  0  0  0  0  0  0  0
    7.4853  -15.7421   18.9980 N   0  0  0  0  0  0  0  0  0  0  0  0
    7.3869  -15.2580   21.3620 C   0  0  0  0  0  0  0  0  0  0  0  0
    6.1614  -15.4781   21.5242 O   0  0  0  0  0  0  0  0  0  0  0  0
    8.2083  -15.3923   22.5416 N   0  0  0  0  0  0  0  0  0  0  0  0
    7.6652  -15.7465   23.8142 C   0  0  1  0  0  0  0  0  0  0  0  0
    7.6610  -17.2544   24.0363 C   0  0  0  0  0  0  0  0  0  0  0  0
    7.1770  -17.6177   25.3707 C   0  0  0  0  0  0  0  0  0  0  0  0
    6.0285  -17.3403   25.7934 O   0  0  0  0  0  0  0  0  0  0  0  0
    8.4615  -15.1732   24.9107 C   0  0  0  0  0  0  0  0  0  0  0  0
    9.6986  -15.5991   24.8825 O   0  0  0  0  0  0  0  0  0  0  0  0
    8.0227  -18.3071   26.2278 O   0  0  0  0  0  0  0  0  0  0  0  0
    8.0634  -14.2786   25.9184 N   0  0  0  0  0  0  0  0  0  0  0  0
    6.7667  -13.7407   26.1821 C   0  0  0  0  0  0  0  0  0  0  0  0
    6.9042  -12.9781   27.5165 C   0  0  0  0  0  0  0  0  0  0  0  0
    8.3540  -12.4792   27.3555 C   0  0  0  0  0  0  0  0  0  0  0  0
    8.9871  -13.7655   26.9051 C   0  0  1  0  0  0  0  0  0  0  0  0
    9.0584  -14.6726   28.0844 C   0  0  0  0  0  0  0  0  0  0  0  0
    9.9128  -14.4656   29.1437 O   0  0  0  0  0  0  0  0  0  0  0  0
    8.3074  -15.6601   28.1041 O   0  0  0  0  0  0  0  0  0  0  0  0
  2  3  1  1
  2  1  1  0
  4  5  1  6
  4  2  1  0
  6  4  1  0
  7  6  2  0
  8  6  1  0
  9  8  1  0
  9 10  1  1
 10 11  1  0
 11 12  2  0
 13  9  1  0
 13 14  2  0
 15 11  1  0
 16 13  1  0
 17 16  1  0
 18 17  1  0
 19 20  1  0
 19 18  1  0
 20 16  1  0
 21 22  1  0
 20 21  1  1
 23 21  2  0
M  END
$$$$
