VDP.pdb
     RDKit          3D

 23 23  0  0  1  0  0  0  0  0999 V2000
    8.6342  -13.0519   18.3594 C   0  0  0  0  0  0  0  0  0  0  0  0
    7.8869  -13.3989   19.6401 C   0  0  2  0  0  0  0  0  0  0  0  0
    8.4044  -12.4728   20.7187 C   0  0  0  0  0  0  0  0  0  0  0  0
    8.2178  -14.8394   19.9689 C   0  0  2  0  0  0  0  0  0  0  0  0
    7.8622  -15.7387   18.9107 N   0  0  0  0  0  0  0  0  0  0  0  0
    7.5870  -15.2539   21.2605 C   0  0  0  0  0  0  0  0  0  0  0  0
    6.3508  -15.4392   21.3803 O   0  0  0  0  0  0  0  0  0  0  0  0
    8.3702  -15.4669   22.4544 N   0  0  0  0  0  0  0  0  0  0  0  0
    7.7732  -15.7774   23.7143 C   0  0  1  0  0  0  0  0  0  0  0  0
    7.8337  -17.2683   24.0254 C   0  0  0  0  0  0  0  0  0  0  0  0
    7.2429  -17.5880   25.3276 C   0  0  0  0  0  0  0  0  0  0  0  0
    7.9169  -17.7849   26.3677 O   0  0  0  0  0  0  0  0  0  0  0  0
    8.4742  -15.1001   24.8165 C   0  0  0  0  0  0  0  0  0  0  0  0
    9.7093  -15.5170   24.9314 O   0  0  0  0  0  0  0  0  0  0  0  0
    5.8628  -17.6821   25.4348 O   0  0  0  0  0  0  0  0  0  0  0  0
    7.9924  -14.1204   25.7009 N   0  0  0  0  0  0  0  0  0  0  0  0
    6.6837  -13.5549   25.7899 C   0  0  0  0  0  0  0  0  0  0  0  0
    6.7014  -12.6816   27.0619 C   0  0  0  0  0  0  0  0  0  0  0  0
    8.1666  -12.2060   27.0019 C   0  0  0  0  0  0  0  0  0  0  0  0
    8.8228  -13.5295   26.7263 C   0  0  1  0  0  0  0  0  0  0  0  0
    8.7669  -14.3327   27.9795 C   0  0  0  0  0  0  0  0  0  0  0  0
    8.0005  -15.4684   28.1131 O   0  0  0  0  0  0  0  0  0  0  0  0
    9.4475  -13.9519   28.9445 O   0  0  0  0  0  0  0  0  0  0  0  0
  2  3  1  1
  2  1  1  0
  4  5  1  6
  4  2  1  0
  6  4  1  0
  7  6  2  0
  8  6  1  0
  9  8  1  0
  9 10  1  1
 10 11  1  0
 11 12  2  0
 13  9  1  0
 13 14  2  0
 15 11  1  0
 16 13  1  0
 17 16  1  0
 18 17  1  0
 19 20  1  0
 19 18  1  0
 20 16  1  0
 21 22  1  0
 20 21  1  1
 23 21  2  0
M  END
$$$$
