VDP.pdb
     RDKit          3D

 23 23  0  0  1  0  0  0  0  0999 V2000
    7.6479  -19.2122   28.8026 C   0  0  0  0  0  0  0  0  0  0  0  0
    7.1482  -19.9644   27.5765 C   0  0  2  0  0  0  0  0  0  0  0  0
    6.8883  -21.3908   28.0083 C   0  0  0  0  0  0  0  0  0  0  0  0
    8.2546  -19.9120   26.5442 C   0  0  2  0  0  0  0  0  0  0  0  0
    9.4415  -20.5890   26.9779 N   0  0  0  0  0  0  0  0  0  0  0  0
    8.5553  -18.5004   26.1503 C   0  0  0  0  0  0  0  0  0  0  0  0
    9.3243  -17.7625   26.8142 O   0  0  0  0  0  0  0  0  0  0  0  0
    7.9733  -17.8999   24.9735 N   0  0  0  0  0  0  0  0  0  0  0  0
    8.2460  -16.5514   24.5897 C   0  0  1  0  0  0  0  0  0  0  0  0
    8.0531  -16.3308   23.0940 C   0  0  0  0  0  0  0  0  0  0  0  0
    8.4320  -14.9776   22.6790 C   0  0  0  0  0  0  0  0  0  0  0  0
    7.6046  -14.0952   22.3450 O   0  0  0  0  0  0  0  0  0  0  0  0
    7.3355  -15.6121   25.2631 C   0  0  0  0  0  0  0  0  0  0  0  0
    6.1298  -16.1075   25.3784 O   0  0  0  0  0  0  0  0  0  0  0  0
    9.7763  -14.6356   22.6479 O   0  0  0  0  0  0  0  0  0  0  0  0
    7.6025  -14.3257   25.7613 N   0  0  0  0  0  0  0  0  0  0  0  0
    8.7469  -13.4982   25.5467 C   0  0  0  0  0  0  0  0  0  0  0  0
    8.3920  -12.1373   26.1817 C   0  0  0  0  0  0  0  0  0  0  0  0
    7.5320  -12.6420   27.3574 C   0  0  0  0  0  0  0  0  0  0  0  0
    6.6683  -13.6145   26.6048 C   0  0  1  0  0  0  0  0  0  0  0  0
    5.7085  -12.8260   25.7828 C   0  0  0  0  0  0  0  0  0  0  0  0
    4.6750  -12.0957   26.3246 O   0  0  0  0  0  0  0  0  0  0  0  0
    5.8557  -12.8337   24.5509 O   0  0  0  0  0  0  0  0  0  0  0  0
  2  3  1  1
  2  1  1  0
  4  5  1  1
  4  2  1  0
  6  4  1  0
  7  6  2  0
  8  6  1  0
  9  8  1  0
  9 10  1  6
 10 11  1  0
 11 12  2  0
 13  9  1  0
 13 14  2  0
 15 11  1  0
 16 13  1  0
 17 16  1  0
 18 17  1  0
 19 20  1  0
 19 18  1  0
 20 16  1  0
 21 22  1  0
 20 21  1  6
 23 21  2  0
M  END
$$$$
