WGP.pdb
     RDKit          3D

 26 28  0  0  1  0  0  0  0  0999 V2000
    7.8819  -17.9386   25.1726 N   0  0  0  0  0  0  0  0  0  0  0  0
    8.2440  -16.6969   24.5748 C   0  0  1  0  0  0  0  0  0  0  0  0
    8.6671  -15.6116   25.5016 C   0  0  0  0  0  0  0  0  0  0  0  0
    7.5464  -14.8482   26.0889 C   0  0  0  0  0  0  0  0  0  0  0  0
    6.3702  -15.3880   26.5757 C   0  0  0  0  0  0  0  0  0  0  0  0
    5.5680  -14.4151   27.0207 N   0  0  0  0  0  0  0  0  0  0  0  0
    6.1886  -13.2140   26.8415 C   0  0  0  0  0  0  0  0  0  0  0  0
    5.7631  -11.9403   27.1449 C   0  0  0  0  0  0  0  0  0  0  0  0
    6.5950  -10.8861   26.8618 C   0  0  0  0  0  0  0  0  0  0  0  0
    7.8206  -11.1148   26.2889 C   0  0  0  0  0  0  0  0  0  0  0  0
    8.2158  -12.4047   25.9977 C   0  0  0  0  0  0  0  0  0  0  0  0
    7.4162  -13.4921   26.2628 C   0  0  0  0  0  0  0  0  0  0  0  0
    9.2175  -16.8727   23.4485 C   0  0  0  0  0  0  0  0  0  0  0  0
   10.3828  -17.2205   23.7492 O   0  0  0  0  0  0  0  0  0  0  0  0
    8.9014  -16.6721   22.0893 N   0  0  0  0  0  0  0  0  0  0  0  0
    9.5629  -15.7611   21.2144 C   0  0  0  0  0  0  0  0  0  0  0  0
    8.9255  -15.8058   19.8780 C   0  0  0  0  0  0  0  0  0  0  0  0
    8.5549  -16.9177   19.4278 O   0  0  0  0  0  0  0  0  0  0  0  0
    8.7213  -14.6458   19.0967 N   0  0  0  0  0  0  0  0  0  0  0  0
    9.0774  -13.2976   19.4478 C   0  0  0  0  0  0  0  0  0  0  0  0
    8.3687  -12.3949   18.4738 C   0  0  0  0  0  0  0  0  0  0  0  0
    7.4088  -13.2851   17.7059 C   0  0  0  0  0  0  0  0  0  0  0  0
    8.1111  -14.6189   17.7926 C   0  0  1  0  0  0  0  0  0  0  0  0
    9.2073  -14.7202   16.7749 C   0  0  0  0  0  0  0  0  0  0  0  0
   10.5445  -14.5712   17.0994 O   0  0  0  0  0  0  0  0  0  0  0  0
    8.9316  -14.9523   15.5507 O   0  0  0  0  0  0  0  0  0  0  0  0
  2 13  1  0
  2  1  1  1
  3  2  1  0
  4  3  1  0
  5  4  2  0
  6  7  1  0
  6  5  1  0
  7 12  2  0
  8  7  1  0
  8  9  2  0
  9 10  1  0
 10 11  2  0
 12  4  1  0
 12 11  1  0
 13 15  1  0
 14 13  2  0
 16 15  1  0
 17 16  1  0
 18 17  2  0
 19 17  1  0
 19 23  1  0
 20 21  1  0
 20 19  1  0
 21 22  1  0
 22 23  1  0
 23 24  1  6
 24 25  1  0
 26 24  2  0
M  END
$$$$
