WGP.pdb
     RDKit          3D

 26 28  0  0  1  0  0  0  0  0999 V2000
    7.2408  -17.7175   25.4514 N   0  0  0  0  0  0  0  0  0  0  0  0
    7.1864  -16.4958   24.7201 C   0  0  1  0  0  0  0  0  0  0  0  0
    8.3309  -15.5613   24.9013 C   0  0  0  0  0  0  0  0  0  0  0  0
    8.2480  -14.7352   26.1236 C   0  0  0  0  0  0  0  0  0  0  0  0
    9.0575  -14.8596   27.2377 C   0  0  0  0  0  0  0  0  0  0  0  0
    8.7019  -13.9651   28.1659 N   0  0  0  0  0  0  0  0  0  0  0  0
    7.6550  -13.2300   27.6932 C   0  0  0  0  0  0  0  0  0  0  0  0
    6.9560  -12.1997   28.2807 C   0  0  0  0  0  0  0  0  0  0  0  0
    5.9315  -11.6173   27.5773 C   0  0  0  0  0  0  0  0  0  0  0  0
    5.6243  -12.0647   26.3172 C   0  0  0  0  0  0  0  0  0  0  0  0
    6.3455  -13.1000   25.7580 C   0  0  0  0  0  0  0  0  0  0  0  0
    7.3799  -13.7145   26.4247 C   0  0  0  0  0  0  0  0  0  0  0  0
    6.8775  -16.7168   23.2700 C   0  0  0  0  0  0  0  0  0  0  0  0
    7.1091  -17.8560   22.8033 O   0  0  0  0  0  0  0  0  0  0  0  0
    6.3486  -15.7300   22.4131 N   0  0  0  0  0  0  0  0  0  0  0  0
    5.9821  -15.9315   21.0500 C   0  0  0  0  0  0  0  0  0  0  0  0
    7.1943  -15.8911   20.1995 C   0  0  0  0  0  0  0  0  0  0  0  0
    7.6125  -16.9647   19.7010 O   0  0  0  0  0  0  0  0  0  0  0  0
    7.8922  -14.6915   19.9316 N   0  0  0  0  0  0  0  0  0  0  0  0
    7.7018  -13.4217   20.5789 C   0  0  0  0  0  0  0  0  0  0  0  0
    8.4148  -12.3962   19.7387 C   0  0  0  0  0  0  0  0  0  0  0  0
    8.8152  -13.1118   18.4615 C   0  0  0  0  0  0  0  0  0  0  0  0
    8.9314  -14.5369   18.9468 C   0  0  1  0  0  0  0  0  0  0  0  0
   10.2450  -14.7701   19.6306 C   0  0  0  0  0  0  0  0  0  0  0  0
   11.4418  -14.8553   18.9408 O   0  0  0  0  0  0  0  0  0  0  0  0
   10.2980  -14.8997   20.8991 O   0  0  0  0  0  0  0  0  0  0  0  0
  2 13  1  0
  2  1  1  6
  3  2  1  0
  4  3  1  0
  5  4  2  0
  6  7  1  0
  6  5  1  0
  7 12  2  0
  8  7  1  0
  8  9  2  0
  9 10  1  0
 10 11  2  0
 12  4  1  0
 12 11  1  0
 13 15  1  0
 14 13  2  0
 16 15  1  0
 17 16  1  0
 18 17  2  0
 19 17  1  0
 19 23  1  0
 20 21  1  0
 20 19  1  0
 21 22  1  0
 22 23  1  0
 23 24  1  1
 24 25  1  0
 26 24  2  0
M  END
$$$$
