WGP.pdb
     RDKit          3D

 26 28  0  0  1  0  0  0  0  0999 V2000
    8.0913  -17.8948   24.5745 N   0  0  0  0  0  0  0  0  0  0  0  0
    8.4568  -16.5456   24.2985 C   0  0  1  0  0  0  0  0  0  0  0  0
    8.9110  -15.7297   25.4578 C   0  0  0  0  0  0  0  0  0  0  0  0
    7.8126  -15.1039   26.2230 C   0  0  0  0  0  0  0  0  0  0  0  0
    6.8850  -15.7751   26.9982 C   0  0  0  0  0  0  0  0  0  0  0  0
    6.0237  -14.9067   27.5387 N   0  0  0  0  0  0  0  0  0  0  0  0
    6.3569  -13.6464   27.1381 C   0  0  0  0  0  0  0  0  0  0  0  0
    5.7717  -12.4362   27.4349 C   0  0  0  0  0  0  0  0  0  0  0  0
    6.3140  -11.2960   26.8970 C   0  0  0  0  0  0  0  0  0  0  0  0
    7.4157  -11.3789   26.0834 C   0  0  0  0  0  0  0  0  0  0  0  0
    7.9775  -12.6087   25.8063 C   0  0  0  0  0  0  0  0  0  0  0  0
    7.4687  -13.7780   26.3219 C   0  0  0  0  0  0  0  0  0  0  0  0
    9.4060  -16.4406   23.1430 C   0  0  0  0  0  0  0  0  0  0  0  0
   10.6283  -16.5471   23.3958 O   0  0  0  0  0  0  0  0  0  0  0  0
    9.0078  -16.2320   21.8068 N   0  0  0  0  0  0  0  0  0  0  0  0
    9.8632  -16.3126   20.6690 C   0  0  0  0  0  0  0  0  0  0  0  0
    9.0643  -16.1342   19.4344 C   0  0  0  0  0  0  0  0  0  0  0  0
    8.6595  -17.1572   18.8297 O   0  0  0  0  0  0  0  0  0  0  0  0
    8.7440  -14.8585   18.9169 N   0  0  0  0  0  0  0  0  0  0  0  0
    9.0703  -13.5856   19.5010 C   0  0  0  0  0  0  0  0  0  0  0  0
    8.2423  -12.5543   18.7822 C   0  0  0  0  0  0  0  0  0  0  0  0
    7.2594  -13.3334   17.9275 C   0  0  0  0  0  0  0  0  0  0  0  0
    8.0236  -14.6147   17.6941 C   0  0  1  0  0  0  0  0  0  0  0  0
    9.0318  -14.4508   16.5967 C   0  0  0  0  0  0  0  0  0  0  0  0
   10.3888  -14.3297   16.8405 O   0  0  0  0  0  0  0  0  0  0  0  0
    8.6580  -14.4177   15.3769 O   0  0  0  0  0  0  0  0  0  0  0  0
  2 13  1  0
  2  1  1  1
  3  2  1  0
  4  3  1  0
  5  4  2  0
  6  7  1  0
  6  5  1  0
  7 12  2  0
  8  7  1  0
  8  9  2  0
  9 10  1  0
 10 11  2  0
 12  4  1  0
 12 11  1  0
 13 15  1  0
 14 13  2  0
 16 15  1  0
 17 16  1  0
 18 17  2  0
 19 17  1  0
 19 23  1  0
 20 21  1  0
 20 19  1  0
 21 22  1  0
 22 23  1  0
 23 24  1  6
 24 25  1  0
 26 24  2  0
M  END
$$$$
