WGP.pdb
     RDKit          3D

 26 28  0  0  1  0  0  0  0  0999 V2000
    8.1151  -18.0441   25.7351 N   0  0  0  0  0  0  0  0  0  0  0  0
    8.1696  -16.9685   24.8020 C   0  0  1  0  0  0  0  0  0  0  0  0
    8.5384  -15.6335   25.3476 C   0  0  0  0  0  0  0  0  0  0  0  0
    7.4000  -14.8731   25.9036 C   0  0  0  0  0  0  0  0  0  0  0  0
    6.1444  -15.3844   26.1759 C   0  0  0  0  0  0  0  0  0  0  0  0
    5.3508  -14.4215   26.6566 N   0  0  0  0  0  0  0  0  0  0  0  0
    6.0559  -13.2556   26.7148 C   0  0  0  0  0  0  0  0  0  0  0  0
    5.6699  -12.0043   27.1398 C   0  0  0  0  0  0  0  0  0  0  0  0
    6.5887  -10.9857   27.0996 C   0  0  0  0  0  0  0  0  0  0  0  0
    7.8599  -11.2269   26.6429 C   0  0  0  0  0  0  0  0  0  0  0  0
    8.2135  -12.4935   26.2242 C   0  0  0  0  0  0  0  0  0  0  0  0
    7.3270  -13.5451   26.2458 C   0  0  0  0  0  0  0  0  0  0  0  0
    8.9788  -17.3122   23.5878 C   0  0  0  0  0  0  0  0  0  0  0  0
   10.0125  -17.9972   23.7649 O   0  0  0  0  0  0  0  0  0  0  0  0
    8.6479  -16.9143   22.2764 N   0  0  0  0  0  0  0  0  0  0  0  0
    8.8308  -15.6058   21.7405 C   0  0  0  0  0  0  0  0  0  0  0  0
    8.3707  -15.5777   20.3328 C   0  0  0  0  0  0  0  0  0  0  0  0
    7.7804  -16.5869   19.8752 O   0  0  0  0  0  0  0  0  0  0  0  0
    8.5723  -14.4597   19.4918 N   0  0  0  0  0  0  0  0  0  0  0  0
    9.2180  -13.2237   19.8427 C   0  0  0  0  0  0  0  0  0  0  0  0
    8.8937  -12.2404   18.7502 C   0  0  0  0  0  0  0  0  0  0  0  0
    7.8400  -12.9107   17.8878 C   0  0  0  0  0  0  0  0  0  0  0  0
    8.1574  -14.3692   18.1159 C   0  0  1  0  0  0  0  0  0  0  0  0
    9.3082  -14.8121   17.2632 C   0  0  0  0  0  0  0  0  0  0  0  0
    9.1628  -15.1520   15.9295 O   0  0  0  0  0  0  0  0  0  0  0  0
   10.4832  -14.8901   17.7552 O   0  0  0  0  0  0  0  0  0  0  0  0
  2 13  1  0
  2  1  1  1
  3  2  1  0
  4  3  1  0
  5  4  2  0
  6  7  1  0
  6  5  1  0
  7 12  2  0
  8  7  1  0
  8  9  2  0
  9 10  1  0
 10 11  2  0
 12  4  1  0
 12 11  1  0
 13 15  1  0
 14 13  2  0
 16 15  1  0
 17 16  1  0
 18 17  2  0
 19 17  1  0
 19 23  1  0
 20 21  1  0
 20 19  1  0
 21 22  1  0
 22 23  1  0
 23 24  1  6
 24 25  1  0
 26 24  2  0
M  END
$$$$
