WGP.pdb
     RDKit          3D

 26 28  0  0  1  0  0  0  0  0999 V2000
    9.3949  -18.1769   25.2308 N   0  0  0  0  0  0  0  0  0  0  0  0
    9.1635  -16.8471   24.7743 C   0  0  1  0  0  0  0  0  0  0  0  0
    9.1761  -15.7775   25.8094 C   0  0  0  0  0  0  0  0  0  0  0  0
    7.8548  -15.1658   26.0617 C   0  0  0  0  0  0  0  0  0  0  0  0
    6.6569  -15.8483   26.1672 C   0  0  0  0  0  0  0  0  0  0  0  0
    5.6558  -14.9883   26.3827 N   0  0  0  0  0  0  0  0  0  0  0  0
    6.1619  -13.7227   26.4254 C   0  0  0  0  0  0  0  0  0  0  0  0
    5.5259  -12.5180   26.6241 C   0  0  0  0  0  0  0  0  0  0  0  0
    6.2795  -11.3710   26.6258 C   0  0  0  0  0  0  0  0  0  0  0  0
    7.6360  -11.4419   26.4322 C   0  0  0  0  0  0  0  0  0  0  0  0
    8.2416  -12.6664   26.2358 C   0  0  0  0  0  0  0  0  0  0  0  0
    7.5277  -13.8421   26.2256 C   0  0  0  0  0  0  0  0  0  0  0  0
   10.0276  -16.4920   23.6019 C   0  0  0  0  0  0  0  0  0  0  0  0
   11.2478  -16.3160   23.8237 O   0  0  0  0  0  0  0  0  0  0  0  0
    9.5525  -16.3467   22.2825 N   0  0  0  0  0  0  0  0  0  0  0  0
    9.5148  -15.1244   21.5493 C   0  0  0  0  0  0  0  0  0  0  0  0
    8.8478  -15.3485   20.2459 C   0  0  0  0  0  0  0  0  0  0  0  0
    8.3587  -16.4805   20.0099 O   0  0  0  0  0  0  0  0  0  0  0  0
    8.7436  -14.3370   19.2642 N   0  0  0  0  0  0  0  0  0  0  0  0
    9.2954  -13.0108   19.3324 C   0  0  0  0  0  0  0  0  0  0  0  0
    8.6455  -12.2143   18.2329 C   0  0  0  0  0  0  0  0  0  0  0  0
    7.5277  -13.0875   17.6929 C   0  0  0  0  0  0  0  0  0  0  0  0
    8.0547  -14.4673   18.0064 C   0  0  1  0  0  0  0  0  0  0  0  0
    9.0563  -14.9094   16.9823 C   0  0  0  0  0  0  0  0  0  0  0  0
    8.6889  -15.4482   15.7615 O   0  0  0  0  0  0  0  0  0  0  0  0
   10.3066  -14.7987   17.2129 O   0  0  0  0  0  0  0  0  0  0  0  0
  2 13  1  0
  2  1  1  1
  3  2  1  0
  4  3  1  0
  5  4  2  0
  6  7  1  0
  6  5  1  0
  7 12  2  0
  8  7  1  0
  8  9  2  0
  9 10  1  0
 10 11  2  0
 12  4  1  0
 12 11  1  0
 13 15  1  0
 14 13  2  0
 16 15  1  0
 17 16  1  0
 18 17  2  0
 19 17  1  0
 19 23  1  0
 20 21  1  0
 20 19  1  0
 21 22  1  0
 22 23  1  0
 23 24  1  6
 24 25  1  0
 26 24  2  0
M  END
$$$$
