WGP.pdb
     RDKit          3D

 26 28  0  0  1  0  0  0  0  0999 V2000
    9.1588  -18.3800   25.0856 N   0  0  0  0  0  0  0  0  0  0  0  0
    9.0945  -16.9814   24.8205 C   0  0  1  0  0  0  0  0  0  0  0  0
    9.1315  -16.0785   26.0034 C   0  0  0  0  0  0  0  0  0  0  0  0
    7.9007  -15.2836   26.1949 C   0  0  0  0  0  0  0  0  0  0  0  0
    6.6210  -15.7940   26.3133 C   0  0  0  0  0  0  0  0  0  0  0  0
    5.7412  -14.7979   26.4609 N   0  0  0  0  0  0  0  0  0  0  0  0
    6.4112  -13.6103   26.4445 C   0  0  0  0  0  0  0  0  0  0  0  0
    5.9394  -12.3224   26.5638 C   0  0  0  0  0  0  0  0  0  0  0  0
    6.8394  -11.2874   26.5179 C   0  0  0  0  0  0  0  0  0  0  0  0
    8.1767  -11.5485   26.3561 C   0  0  0  0  0  0  0  0  0  0  0  0
    8.6157  -12.8518   26.2395 C   0  0  0  0  0  0  0  0  0  0  0  0
    7.7512  -13.9210   26.2792 C   0  0  0  0  0  0  0  0  0  0  0  0
   10.0774  -16.5578   23.7709 C   0  0  0  0  0  0  0  0  0  0  0  0
   11.2166  -17.0771   23.8117 O   0  0  0  0  0  0  0  0  0  0  0  0
    9.7972  -15.6218   22.7545 N   0  0  0  0  0  0  0  0  0  0  0  0
    8.4974  -15.1587   22.3952 C   0  0  0  0  0  0  0  0  0  0  0  0
    8.2790  -15.3701   20.9454 C   0  0  0  0  0  0  0  0  0  0  0  0
    7.9649  -16.5188   20.5480 O   0  0  0  0  0  0  0  0  0  0  0  0
    8.4114  -14.3283   19.9994 N   0  0  0  0  0  0  0  0  0  0  0  0
    8.8362  -12.9791   20.2583 C   0  0  0  0  0  0  0  0  0  0  0  0
    8.4969  -12.1754   19.0315 C   0  0  0  0  0  0  0  0  0  0  0  0
    7.6464  -13.0837   18.1625 C   0  0  0  0  0  0  0  0  0  0  0  0
    8.1384  -14.4456   18.5904 C   0  0  1  0  0  0  0  0  0  0  0  0
    9.4250  -14.7958   17.9050 C   0  0  0  0  0  0  0  0  0  0  0  0
    9.4735  -15.2831   16.6105 O   0  0  0  0  0  0  0  0  0  0  0  0
   10.5389  -14.6509   18.5106 O   0  0  0  0  0  0  0  0  0  0  0  0
  2 13  1  0
  2  1  1  1
  3  2  1  0
  4  3  1  0
  5  4  2  0
  6  7  1  0
  6  5  1  0
  7 12  2  0
  8  7  1  0
  8  9  2  0
  9 10  1  0
 10 11  2  0
 12  4  1  0
 12 11  1  0
 13 15  1  0
 14 13  2  0
 16 15  1  0
 17 16  1  0
 18 17  2  0
 19 17  1  0
 19 23  1  0
 20 21  1  0
 20 19  1  0
 21 22  1  0
 22 23  1  0
 23 24  1  6
 24 25  1  0
 26 24  2  0
M  END
$$$$
