WGP.pdb
     RDKit          3D

 26 28  0  0  1  0  0  0  0  0999 V2000
    7.1583  -18.5703   25.9132 N   0  0  0  0  0  0  0  0  0  0  0  0
    7.4564  -17.3246   25.2890 C   0  0  1  0  0  0  0  0  0  0  0  0
    8.8910  -16.9299   25.2451 C   0  0  0  0  0  0  0  0  0  0  0  0
    9.4276  -16.4590   26.5389 C   0  0  0  0  0  0  0  0  0  0  0  0
   10.2170  -17.1971   27.4014 C   0  0  0  0  0  0  0  0  0  0  0  0
   10.5133  -16.4731   28.4859 N   0  0  0  0  0  0  0  0  0  0  0  0
    9.9318  -15.2450   28.3699 C   0  0  0  0  0  0  0  0  0  0  0  0
    9.9555  -14.1666   29.2254 C   0  0  0  0  0  0  0  0  0  0  0  0
    9.2801  -13.0278   28.8640 C   0  0  0  0  0  0  0  0  0  0  0  0
    8.6014  -12.9826   27.6724 C   0  0  0  0  0  0  0  0  0  0  0  0
    8.5982  -14.0821   26.8383 C   0  0  0  0  0  0  0  0  0  0  0  0
    9.2600  -15.2448   27.1582 C   0  0  0  0  0  0  0  0  0  0  0  0
    6.8059  -17.1943   23.9448 C   0  0  0  0  0  0  0  0  0  0  0  0
    6.3247  -18.2346   23.4394 O   0  0  0  0  0  0  0  0  0  0  0  0
    6.7058  -15.9852   23.2267 N   0  0  0  0  0  0  0  0  0  0  0  0
    5.9095  -15.7813   22.0617 C   0  0  0  0  0  0  0  0  0  0  0  0
    6.7862  -15.6946   20.8708 C   0  0  0  0  0  0  0  0  0  0  0  0
    6.8445  -16.6813   20.0967 O   0  0  0  0  0  0  0  0  0  0  0  0
    7.5549  -14.5452   20.5779 N   0  0  0  0  0  0  0  0  0  0  0  0
    7.6972  -13.3726   21.3980 C   0  0  0  0  0  0  0  0  0  0  0  0
    8.3205  -12.3113   20.5314 C   0  0  0  0  0  0  0  0  0  0  0  0
    8.3046  -12.8665   19.1190 C   0  0  0  0  0  0  0  0  0  0  0  0
    8.3402  -14.3522   19.3864 C   0  0  1  0  0  0  0  0  0  0  0  0
    9.7354  -14.8155   19.6806 C   0  0  0  0  0  0  0  0  0  0  0  0
   10.1302  -15.2486   20.9344 O   0  0  0  0  0  0  0  0  0  0  0  0
   10.6199  -14.8237   18.7607 O   0  0  0  0  0  0  0  0  0  0  0  0
  2 13  1  0
  2  1  1  6
  3  2  1  0
  4  3  1  0
  5  4  2  0
  6  7  1  0
  6  5  1  0
  7 12  2  0
  8  7  1  0
  8  9  2  0
  9 10  1  0
 10 11  2  0
 12  4  1  0
 12 11  1  0
 13 15  1  0
 14 13  2  0
 16 15  1  0
 17 16  1  0
 18 17  2  0
 19 17  1  0
 19 23  1  0
 20 21  1  0
 20 19  1  0
 21 22  1  0
 22 23  1  0
 23 24  1  1
 24 25  1  0
 26 24  2  0
M  END
$$$$
