WGP.pdb
     RDKit          3D

 26 28  0  0  1  0  0  0  0  0999 V2000
    8.2309  -18.6088   24.5588 N   0  0  0  0  0  0  0  0  0  0  0  0
    7.7031  -17.3516   24.1451 C   0  0  1  0  0  0  0  0  0  0  0  0
    8.3458  -16.1389   24.7215 C   0  0  0  0  0  0  0  0  0  0  0  0
    7.4141  -15.2466   25.4421 C   0  0  0  0  0  0  0  0  0  0  0  0
    6.2291  -15.6321   26.0415 C   0  0  0  0  0  0  0  0  0  0  0  0
    5.6264  -14.5724   26.5908 N   0  0  0  0  0  0  0  0  0  0  0  0
    6.3919  -13.4653   26.3710 C   0  0  0  0  0  0  0  0  0  0  0  0
    6.1886  -12.1561   26.7453 C   0  0  0  0  0  0  0  0  0  0  0  0
    7.1301  -11.2205   26.3963 C   0  0  0  0  0  0  0  0  0  0  0  0
    8.2437  -11.5993   25.6900 C   0  0  0  0  0  0  0  0  0  0  0  0
    8.4162  -12.9206   25.3307 C   0  0  0  0  0  0  0  0  0  0  0  0
    7.4998  -13.8930   25.6575 C   0  0  0  0  0  0  0  0  0  0  0  0
    7.5747  -17.2537   22.6547 C   0  0  0  0  0  0  0  0  0  0  0  0
    8.3403  -17.9678   21.9669 O   0  0  0  0  0  0  0  0  0  0  0  0
    6.6546  -16.4160   21.9920 N   0  0  0  0  0  0  0  0  0  0  0  0
    6.4338  -16.3845   20.5837 C   0  0  0  0  0  0  0  0  0  0  0  0
    7.6785  -15.9705   19.8957 C   0  0  0  0  0  0  0  0  0  0  0  0
    8.2672  -16.8068   19.1675 O   0  0  0  0  0  0  0  0  0  0  0  0
    8.2231  -14.6732   20.0303 N   0  0  0  0  0  0  0  0  0  0  0  0
    7.8505  -13.6794   21.0005 C   0  0  0  0  0  0  0  0  0  0  0  0
    8.4498  -12.3779   20.5393 C   0  0  0  0  0  0  0  0  0  0  0  0
    8.9781  -12.6369   19.1402 C   0  0  0  0  0  0  0  0  0  0  0  0
    9.2630  -14.1184   19.2029 C   0  0  1  0  0  0  0  0  0  0  0  0
   10.5744  -14.3890   19.8772 C   0  0  0  0  0  0  0  0  0  0  0  0
   10.6672  -15.0251   21.1029 O   0  0  0  0  0  0  0  0  0  0  0  0
   11.6688  -14.0318   19.3265 O   0  0  0  0  0  0  0  0  0  0  0  0
  2 13  1  0
  2  1  1  6
  3  2  1  0
  4  3  1  0
  5  4  2  0
  6  7  1  0
  6  5  1  0
  7 12  2  0
  8  7  1  0
  8  9  2  0
  9 10  1  0
 10 11  2  0
 12  4  1  0
 12 11  1  0
 13 15  1  0
 14 13  2  0
 16 15  1  0
 17 16  1  0
 18 17  2  0
 19 17  1  0
 19 23  1  0
 20 21  1  0
 20 19  1  0
 21 22  1  0
 22 23  1  0
 23 24  1  1
 24 25  1  0
 26 24  2  0
M  END
$$$$
