WGP.pdb
     RDKit          3D

 26 28  0  0  1  0  0  0  0  0999 V2000
    8.0210  -18.3183   24.9348 N   0  0  0  0  0  0  0  0  0  0  0  0
    8.2213  -16.9484   24.5979 C   0  0  1  0  0  0  0  0  0  0  0  0
    8.5644  -16.0315   25.7193 C   0  0  0  0  0  0  0  0  0  0  0  0
    7.4636  -15.1315   26.1216 C   0  0  0  0  0  0  0  0  0  0  0  0
    6.1613  -15.5163   26.3822 C   0  0  0  0  0  0  0  0  0  0  0  0
    5.4231  -14.4492   26.7053 N   0  0  0  0  0  0  0  0  0  0  0  0
    6.2125  -13.3378   26.6675 C   0  0  0  0  0  0  0  0  0  0  0  0
    5.9049  -12.0207   26.9245 C   0  0  0  0  0  0  0  0  0  0  0  0
    6.9003  -11.0820   26.8176 C   0  0  0  0  0  0  0  0  0  0  0  0
    8.1687  -11.4654   26.4614 C   0  0  0  0  0  0  0  0  0  0  0  0
    8.4425  -12.7946   26.2107 C   0  0  0  0  0  0  0  0  0  0  0  0
    7.4776  -13.7705   26.3046 C   0  0  0  0  0  0  0  0  0  0  0  0
    9.1589  -16.7808   23.4403 C   0  0  0  0  0  0  0  0  0  0  0  0
    9.8303  -17.7818   23.0989 O   0  0  0  0  0  0  0  0  0  0  0  0
    9.3262  -15.5782   22.7237 N   0  0  0  0  0  0  0  0  0  0  0  0
   10.1994  -15.3955   21.6114 C   0  0  0  0  0  0  0  0  0  0  0  0
    9.4509  -15.6153   20.3522 C   0  0  0  0  0  0  0  0  0  0  0  0
    9.1500  -16.7912   20.0315 O   0  0  0  0  0  0  0  0  0  0  0  0
    9.0659  -14.5521   19.5041 N   0  0  0  0  0  0  0  0  0  0  0  0
    9.3798  -13.1590   19.6731 C   0  0  0  0  0  0  0  0  0  0  0  0
    8.4860  -12.3965   18.7321 C   0  0  0  0  0  0  0  0  0  0  0  0
    7.4881  -13.4072   18.1971 C   0  0  0  0  0  0  0  0  0  0  0  0
    8.2801  -14.6882   18.3051 C   0  0  1  0  0  0  0  0  0  0  0  0
    9.2286  -14.8365   17.1535 C   0  0  0  0  0  0  0  0  0  0  0  0
    8.8315  -15.3077   15.9142 O   0  0  0  0  0  0  0  0  0  0  0  0
   10.4589  -14.5248   17.2868 O   0  0  0  0  0  0  0  0  0  0  0  0
  2 13  1  0
  2  1  1  1
  3  2  1  0
  4  3  1  0
  5  4  2  0
  6  7  1  0
  6  5  1  0
  7 12  2  0
  8  7  1  0
  8  9  2  0
  9 10  1  0
 10 11  2  0
 12  4  1  0
 12 11  1  0
 13 15  1  0
 14 13  2  0
 16 15  1  0
 17 16  1  0
 18 17  2  0
 19 17  1  0
 19 23  1  0
 20 21  1  0
 20 19  1  0
 21 22  1  0
 22 23  1  0
 23 24  1  6
 24 25  1  0
 26 24  2  0
M  END
$$$$
