WGP.pdb
     RDKit          3D

 26 28  0  0  1  0  0  0  0  0999 V2000
    7.1765  -17.3892   25.9909 N   0  0  0  0  0  0  0  0  0  0  0  0
    7.1073  -16.5086   24.8728 C   0  0  1  0  0  0  0  0  0  0  0  0
    8.1569  -15.4564   24.7896 C   0  0  0  0  0  0  0  0  0  0  0  0
    8.2097  -14.5620   25.9646 C   0  0  0  0  0  0  0  0  0  0  0  0
    9.0414  -14.7156   27.0586 C   0  0  0  0  0  0  0  0  0  0  0  0
    8.8198  -13.7389   27.9446 N   0  0  0  0  0  0  0  0  0  0  0  0
    7.8424  -12.9187   27.4631 C   0  0  0  0  0  0  0  0  0  0  0  0
    7.2819  -11.7874   28.0121 C   0  0  0  0  0  0  0  0  0  0  0  0
    6.3017  -11.1336   27.3085 C   0  0  0  0  0  0  0  0  0  0  0  0
    5.9012  -11.6109   26.0860 C   0  0  0  0  0  0  0  0  0  0  0  0
    6.4843  -12.7481   25.5649 C   0  0  0  0  0  0  0  0  0  0  0  0
    7.4696  -13.4369   26.2335 C   0  0  0  0  0  0  0  0  0  0  0  0
    6.9622  -17.2484   23.5771 C   0  0  0  0  0  0  0  0  0  0  0  0
    7.4667  -18.3931   23.5128 O   0  0  0  0  0  0  0  0  0  0  0  0
    6.2997  -16.7370   22.4425 N   0  0  0  0  0  0  0  0  0  0  0  0
    6.5736  -15.4822   21.8232 C   0  0  0  0  0  0  0  0  0  0  0  0
    7.4371  -15.6922   20.6380 C   0  0  0  0  0  0  0  0  0  0  0  0
    7.5959  -16.8626   20.2124 O   0  0  0  0  0  0  0  0  0  0  0  0
    8.0845  -14.6258   19.9737 N   0  0  0  0  0  0  0  0  0  0  0  0
    8.0457  -13.2350   20.3367 C   0  0  0  0  0  0  0  0  0  0  0  0
    8.5910  -12.4658   19.1633 C   0  0  0  0  0  0  0  0  0  0  0  0
    8.7176  -13.4695   18.0319 C   0  0  0  0  0  0  0  0  0  0  0  0
    8.9079  -14.7558   18.7995 C   0  0  1  0  0  0  0  0  0  0  0  0
   10.3283  -14.9092   19.2542 C   0  0  0  0  0  0  0  0  0  0  0  0
   11.3266  -15.4033   18.4327 O   0  0  0  0  0  0  0  0  0  0  0  0
   10.6651  -14.5806   20.4404 O   0  0  0  0  0  0  0  0  0  0  0  0
  2 13  1  0
  2  1  1  1
  3  2  1  0
  4  3  1  0
  5  4  2  0
  6  7  1  0
  6  5  1  0
  7 12  2  0
  8  7  1  0
  8  9  2  0
  9 10  1  0
 10 11  2  0
 12  4  1  0
 12 11  1  0
 13 15  1  0
 14 13  2  0
 16 15  1  0
 17 16  1  0
 18 17  2  0
 19 17  1  0
 19 23  1  0
 20 21  1  0
 20 19  1  0
 21 22  1  0
 22 23  1  0
 23 24  1  1
 24 25  1  0
 26 24  2  0
M  END
$$$$
