WGP.pdb
     RDKit          3D

 26 28  0  0  1  0  0  0  0  0999 V2000
    8.7365  -17.6336   24.8429 N   0  0  0  0  0  0  0  0  0  0  0  0
    7.4492  -17.0468   24.6734 C   0  0  1  0  0  0  0  0  0  0  0  0
    6.7690  -16.5688   25.9082 C   0  0  0  0  0  0  0  0  0  0  0  0
    7.4644  -15.4565   26.5885 C   0  0  0  0  0  0  0  0  0  0  0  0
    8.6580  -15.5539   27.2798 C   0  0  0  0  0  0  0  0  0  0  0  0
    8.9960  -14.3620   27.7829 N   0  0  0  0  0  0  0  0  0  0  0  0
    8.0413  -13.4506   27.4396 C   0  0  0  0  0  0  0  0  0  0  0  0
    7.9542  -12.1061   27.7225 C   0  0  0  0  0  0  0  0  0  0  0  0
    6.8748  -11.4045   27.2471 C   0  0  0  0  0  0  0  0  0  0  0  0
    5.9128  -12.0450   26.5076 C   0  0  0  0  0  0  0  0  0  0  0  0
    6.0312  -13.3942   26.2425 C   0  0  0  0  0  0  0  0  0  0  0  0
    7.0945  -14.1385   26.6981 C   0  0  0  0  0  0  0  0  0  0  0  0
    7.4394  -16.0030   23.5976 C   0  0  0  0  0  0  0  0  0  0  0  0
    6.3219  -15.5794   23.2222 O   0  0  0  0  0  0  0  0  0  0  0  0
    8.5994  -15.4780   22.9923 N   0  0  0  0  0  0  0  0  0  0  0  0
    8.6255  -14.4122   22.0455 C   0  0  0  0  0  0  0  0  0  0  0  0
    8.4839  -14.9611   20.6770 C   0  0  0  0  0  0  0  0  0  0  0  0
    8.2749  -16.1919   20.5438 O   0  0  0  0  0  0  0  0  0  0  0  0
    8.5756  -14.1510   19.5224 N   0  0  0  0  0  0  0  0  0  0  0  0
    8.6842  -12.7177   19.4827 C   0  0  0  0  0  0  0  0  0  0  0  0
    8.4137  -12.3022   18.0614 C   0  0  0  0  0  0  0  0  0  0  0  0
    7.9142  -13.5479   17.3527 C   0  0  0  0  0  0  0  0  0  0  0  0
    8.5761  -14.6345   18.1659 C   0  0  1  0  0  0  0  0  0  0  0  0
   10.0041  -14.8264   17.7515 C   0  0  0  0  0  0  0  0  0  0  0  0
   10.3673  -15.5787   16.6480 O   0  0  0  0  0  0  0  0  0  0  0  0
   10.9480  -14.2883   18.4208 O   0  0  0  0  0  0  0  0  0  0  0  0
  2 13  1  0
  2  1  1  1
  3  2  1  0
  4  3  1  0
  5  4  2  0
  6  7  1  0
  6  5  1  0
  7 12  2  0
  8  7  1  0
  8  9  2  0
  9 10  1  0
 10 11  2  0
 12  4  1  0
 12 11  1  0
 13 15  1  0
 14 13  2  0
 16 15  1  0
 17 16  1  0
 18 17  2  0
 19 17  1  0
 19 23  1  0
 20 21  1  0
 20 19  1  0
 21 22  1  0
 22 23  1  0
 23 24  1  6
 24 25  1  0
 26 24  2  0
M  END
$$$$
