PVG.pdb
     RDKit          3D

 19 19  0  0  1  0  0  0  0  0999 V2000
    8.1454  -14.4078   20.5743 N   0  0  0  0  0  0  0  0  0  0  0  0
    8.2008  -15.6314   19.8471 C   0  0  0  0  0  0  0  0  0  0  0  0
    6.9855  -16.4406   20.1621 C   0  0  0  0  0  0  0  0  0  0  0  0
    6.3332  -15.7422   21.3231 C   0  0  0  0  0  0  0  0  0  0  0  0
    7.1119  -14.4730   21.5466 C   0  0  1  0  0  0  0  0  0  0  0  0
    7.7142  -14.4132   22.9024 C   0  0  0  0  0  0  0  0  0  0  0  0
    8.9419  -14.6476   23.0508 O   0  0  0  0  0  0  0  0  0  0  0  0
    6.3078  -11.6785   25.4393 C   0  0  0  0  0  0  0  0  0  0  0  0
    6.5283  -13.0259   26.1242 C   0  0  2  0  0  0  0  0  0  0  0  0
    7.1509  -12.7424   27.4568 C   0  0  0  0  0  0  0  0  0  0  0  0
    7.4629  -13.8915   25.3011 C   0  0  2  0  0  0  0  0  0  0  0  0
    6.8523  -14.0887   23.9725 N   0  0  0  0  0  0  0  0  0  0  0  0
    7.5637  -15.2136   25.9702 C   0  0  0  0  0  0  0  0  0  0  0  0
    6.4597  -15.8403   26.1458 O   0  0  0  0  0  0  0  0  0  0  0  0
    8.7371  -15.8343   26.4180 N   0  0  0  0  0  0  0  0  0  0  0  0
    8.6245  -17.1832   27.0027 C   0  0  0  0  0  0  0  0  0  0  0  0
    9.4825  -17.2947   28.2030 C   0  0  0  0  0  0  0  0  0  0  0  0
    9.7119  -18.5852   28.6996 O   0  0  0  0  0  0  0  0  0  0  0  0
    9.9879  -16.3001   28.7622 O   0  0  0  0  0  0  0  0  0  0  0  0
  1  2  1  0
  3  2  1  0
  4  5  1  0
  4  3  1  0
  5  1  1  0
  6 12  1  0
  5  6  1  1
  7  6  2  0
  9  8  1  6
  9 11  1  0
 10  9  1  0
 11 12  1  6
 11 13  1  0
 13 15  1  0
 14 13  2  0
 15 16  1  0
 17 16  1  0
 17 18  1  0
 19 17  2  0
M  END
$$$$
