PVG.pdb
     RDKit          3D

 19 19  0  0  1  0  0  0  0  0999 V2000
    8.3357  -14.5010   20.6322 N   0  0  0  0  0  0  0  0  0  0  0  0
    8.2646  -15.7285   19.9130 C   0  0  0  0  0  0  0  0  0  0  0  0
    6.9345  -16.3615   20.1601 C   0  0  0  0  0  0  0  0  0  0  0  0
    6.3191  -15.5684   21.2797 C   0  0  0  0  0  0  0  0  0  0  0  0
    7.2497  -14.4146   21.5439 C   0  0  1  0  0  0  0  0  0  0  0  0
    7.7771  -14.4227   22.9318 C   0  0  0  0  0  0  0  0  0  0  0  0
    8.9759  -14.7432   23.1421 O   0  0  0  0  0  0  0  0  0  0  0  0
    6.5223  -11.6804   25.5875 C   0  0  0  0  0  0  0  0  0  0  0  0
    6.5054  -13.1000   26.1510 C   0  0  2  0  0  0  0  0  0  0  0  0
    7.0142  -13.0182   27.5575 C   0  0  0  0  0  0  0  0  0  0  0  0
    7.4100  -14.0041   25.3358 C   0  0  2  0  0  0  0  0  0  0  0  0
    6.8797  -14.0612   23.9601 N   0  0  0  0  0  0  0  0  0  0  0  0
    7.3368  -15.3668   25.9220 C   0  0  0  0  0  0  0  0  0  0  0  0
    6.1739  -15.9046   25.9509 O   0  0  0  0  0  0  0  0  0  0  0  0
    8.4060  -16.1120   26.4359 N   0  0  0  0  0  0  0  0  0  0  0  0
    8.1159  -17.4524   26.9773 C   0  0  0  0  0  0  0  0  0  0  0  0
    9.0413  -17.7677   28.0881 C   0  0  0  0  0  0  0  0  0  0  0  0
    8.9196  -19.0358   28.6728 O   0  0  0  0  0  0  0  0  0  0  0  0
    9.8966  -16.9579   28.5003 O   0  0  0  0  0  0  0  0  0  0  0  0
  1  2  1  0
  3  2  1  0
  4  5  1  0
  4  3  1  0
  5  1  1  0
  6 12  1  0
  5  6  1  1
  7  6  2  0
  9  8  1  6
  9 11  1  0
 10  9  1  0
 11 12  1  6
 11 13  1  0
 13 15  1  0
 14 13  2  0
 15 16  1  0
 17 16  1  0
 17 18  1  0
 19 17  2  0
M  END
$$$$
