PVG.pdb
     RDKit          3D

 19 19  0  0  1  0  0  0  0  0999 V2000
    8.5229  -17.6575   16.6756 N   0  0  0  0  0  0  0  0  0  0  0  0
    8.8154  -19.0504   16.6163 C   0  0  0  0  0  0  0  0  0  0  0  0
    7.9181  -19.7773   17.5636 C   0  0  0  0  0  0  0  0  0  0  0  0
    7.2556  -18.7057   18.3847 C   0  0  0  0  0  0  0  0  0  0  0  0
    7.6808  -17.3902   17.7880 C   0  0  1  0  0  0  0  0  0  0  0  0
    8.4138  -16.5413   18.7608 C   0  0  0  0  0  0  0  0  0  0  0  0
    9.6681  -16.4590   18.6965 O   0  0  0  0  0  0  0  0  0  0  0  0
    7.0171  -12.9513   19.7435 C   0  0  0  0  0  0  0  0  0  0  0  0
    7.3566  -13.7997   20.9675 C   0  0  2  0  0  0  0  0  0  0  0  0
    7.9828  -12.8841   21.9742 C   0  0  0  0  0  0  0  0  0  0  0  0
    8.3387  -14.8945   20.5970 C   0  0  2  0  0  0  0  0  0  0  0  0
    7.6408  -15.8590   19.7253 N   0  0  0  0  0  0  0  0  0  0  0  0
    8.7317  -15.5934   21.8472 C   0  0  0  0  0  0  0  0  0  0  0  0
    7.7858  -16.1748   22.4872 O   0  0  0  0  0  0  0  0  0  0  0  0
   10.0229  -15.6797   22.3838 N   0  0  0  0  0  0  0  0  0  0  0  0
   10.2005  -16.4358   23.6370 C   0  0  0  0  0  0  0  0  0  0  0  0
   11.6205  -16.4132   24.0523 C   0  0  0  0  0  0  0  0  0  0  0  0
   11.9270  -16.9923   25.2914 O   0  0  0  0  0  0  0  0  0  0  0  0
   12.5183  -15.9078   23.3482 O   0  0  0  0  0  0  0  0  0  0  0  0
  1  2  1  0
  3  2  1  0
  4  5  1  0
  4  3  1  0
  5  1  1  0
  6 12  1  0
  5  6  1  1
  7  6  2  0
  9  8  1  6
  9 11  1  0
 10  9  1  0
 11 12  1  6
 11 13  1  0
 13 15  1  0
 14 13  2  0
 15 16  1  0
 17 16  1  0
 17 18  1  0
 19 17  2  0
M  END
$$$$
