PVG.pdb
     RDKit          3D

 19 19  0  0  1  0  0  0  0  0999 V2000
    8.2377  -17.9481   16.7794 N   0  0  0  0  0  0  0  0  0  0  0  0
    8.5182  -19.3445   16.8016 C   0  0  0  0  0  0  0  0  0  0  0  0
    7.6845  -19.9920   17.8582 C   0  0  0  0  0  0  0  0  0  0  0  0
    7.0857  -18.8574   18.6427 C   0  0  0  0  0  0  0  0  0  0  0  0
    7.4757  -17.5928   17.9244 C   0  0  1  0  0  0  0  0  0  0  0  0
    8.2783  -16.6835   18.7808 C   0  0  0  0  0  0  0  0  0  0  0  0
    9.5290  -16.6415   18.6461 O   0  0  0  0  0  0  0  0  0  0  0  0
    6.9485  -12.9894   19.6345 C   0  0  0  0  0  0  0  0  0  0  0  0
    7.3893  -13.7753   20.8678 C   0  0  2  0  0  0  0  0  0  0  0  0
    8.0942  -12.8111   21.7719 C   0  0  0  0  0  0  0  0  0  0  0  0
    8.3400  -14.8894   20.4739 C   0  0  2  0  0  0  0  0  0  0  0  0
    7.5733  -15.8995   19.7197 N   0  0  0  0  0  0  0  0  0  0  0  0
    8.8424  -15.5194   21.7215 C   0  0  0  0  0  0  0  0  0  0  0  0
    7.9586  -16.0702   22.4683 O   0  0  0  0  0  0  0  0  0  0  0  0
   10.1747  -15.5713   22.1516 N   0  0  0  0  0  0  0  0  0  0  0  0
   10.4785  -16.3524   23.3646 C   0  0  0  0  0  0  0  0  0  0  0  0
   11.9218  -16.2685   23.6800 C   0  0  0  0  0  0  0  0  0  0  0  0
   12.3386  -16.8342   24.8928 O   0  0  0  0  0  0  0  0  0  0  0  0
   12.7456  -15.7245   22.9168 O   0  0  0  0  0  0  0  0  0  0  0  0
  1  2  1  0
  3  2  1  0
  4  5  1  0
  4  3  1  0
  5  1  1  0
  6 12  1  0
  5  6  1  1
  7  6  2  0
  9  8  1  6
  9 11  1  0
 10  9  1  0
 11 12  1  6
 11 13  1  0
 13 15  1  0
 14 13  2  0
 15 16  1  0
 17 16  1  0
 17 18  1  0
 19 17  2  0
M  END
$$$$
