PVG.pdb
     RDKit          3D

 19 19  0  0  1  0  0  0  0  0999 V2000
    8.3607  -17.6296   16.6598 N   0  0  0  0  0  0  0  0  0  0  0  0
    8.5918  -19.0349   16.6322 C   0  0  0  0  0  0  0  0  0  0  0  0
    7.6433  -19.7031   17.5729 C   0  0  0  0  0  0  0  0  0  0  0  0
    7.0125  -18.5877   18.3599 C   0  0  0  0  0  0  0  0  0  0  0  0
    7.5085  -17.3040   17.7488 C   0  0  1  0  0  0  0  0  0  0  0  0
    8.2584  -16.4700   18.7217 C   0  0  0  0  0  0  0  0  0  0  0  0
    9.5140  -16.4124   18.6569 O   0  0  0  0  0  0  0  0  0  0  0  0
    6.9954  -12.8308   19.6828 C   0  0  0  0  0  0  0  0  0  0  0  0
    7.2681  -13.6966   20.9112 C   0  0  2  0  0  0  0  0  0  0  0  0
    7.9010  -12.8100   21.9394 C   0  0  0  0  0  0  0  0  0  0  0  0
    8.2172  -14.8270   20.5623 C   0  0  2  0  0  0  0  0  0  0  0  0
    7.4993  -15.7730   19.6867 N   0  0  0  0  0  0  0  0  0  0  0  0
    8.5679  -15.5303   21.8226 C   0  0  0  0  0  0  0  0  0  0  0  0
    7.5824  -15.9692   22.5142 O   0  0  0  0  0  0  0  0  0  0  0  0
    9.8579  -15.7599   22.3182 N   0  0  0  0  0  0  0  0  0  0  0  0
    9.9917  -16.5552   23.5526 C   0  0  0  0  0  0  0  0  0  0  0  0
   11.3751  -16.4688   24.0705 C   0  0  0  0  0  0  0  0  0  0  0  0
   11.6403  -17.1254   25.2801 O   0  0  0  0  0  0  0  0  0  0  0  0
   12.2777  -15.8463   23.4747 O   0  0  0  0  0  0  0  0  0  0  0  0
  1  2  1  0
  3  2  1  0
  4  5  1  0
  4  3  1  0
  5  1  1  0
  6 12  1  0
  5  6  1  1
  7  6  2  0
  9  8  1  6
  9 11  1  0
 10  9  1  0
 11 12  1  6
 11 13  1  0
 13 15  1  0
 14 13  2  0
 15 16  1  0
 17 16  1  0
 17 18  1  0
 19 17  2  0
M  END
$$$$
