KHN.pdb
     RDKit          3D

 28 28  0  0  1  0  0  0  0  0999 V2000
    7.6523  -18.9769   19.8055 N   0  0  0  0  0  0  0  0  0  0  0  0
    8.9845  -18.5269   19.5147 C   0  0  1  0  0  0  0  0  0  0  0  0
    9.0574  -17.9223   18.1577 C   0  0  0  0  0  0  0  0  0  0  0  0
    8.7306  -18.8407   17.0565 C   0  0  0  0  0  0  0  0  0  0  0  0
    8.7566  -18.2070   15.6999 C   0  0  0  0  0  0  0  0  0  0  0  0
    8.2526  -19.3112   14.7318 C   0  0  0  0  0  0  0  0  0  0  0  0
    8.3741  -18.7759   13.4053 N   0  0  0  0  0  0  0  0  0  0  0  0
    9.3991  -17.4443   20.4885 C   0  0  0  0  0  0  0  0  0  0  0  0
   10.5510  -16.9441   20.4122 O   0  0  0  0  0  0  0  0  0  0  0  0
    8.5127  -16.9728   21.4969 N   0  0  0  0  0  0  0  0  0  0  0  0
    8.9869  -16.0128   22.4725 C   0  0  1  0  0  0  0  0  0  0  0  0
    8.1034  -14.7876   22.5425 C   0  0  0  0  0  0  0  0  0  0  0  0
    8.0367  -14.0494   21.2810 C   0  0  0  0  0  0  0  0  0  0  0  0
    6.9393  -13.7755   20.5067 C   0  0  0  0  0  0  0  0  0  0  0  0
    7.3762  -13.0729   19.4505 N   0  0  0  0  0  0  0  0  0  0  0  0
    8.7046  -12.8954   19.5317 C   0  0  0  0  0  0  0  0  0  0  0  0
    9.0913  -13.4998   20.6586 N   0  0  0  0  0  0  0  0  0  0  0  0
    9.1371  -16.6634   23.8212 C   0  0  0  0  0  0  0  0  0  0  0  0
    8.1552  -16.7997   24.5989 O   0  0  0  0  0  0  0  0  0  0  0  0
   12.7218  -19.7179   23.5202 N   0  0  0  0  0  0  0  0  0  0  0  0
   11.7743  -19.7180   24.5842 C   0  0  0  0  0  0  0  0  0  0  0  0
   10.9894  -20.6678   24.6413 O   0  0  0  0  0  0  0  0  0  0  0  0
   11.7985  -18.6087   25.5201 C   0  0  0  0  0  0  0  0  0  0  0  0
   10.5354  -17.7846   25.6079 C   0  0  2  0  0  0  0  0  0  0  0  0
   10.3909  -17.1496   24.2714 N   0  0  0  0  0  0  0  0  0  0  0  0
   10.7529  -16.7012   26.5858 C   0  0  0  0  0  0  0  0  0  0  0  0
   10.5924  -16.8987   27.7989 O   0  0  0  0  0  0  0  0  0  0  0  0
   11.1398  -15.4516   26.1500 O   0  0  0  0  0  0  0  0  0  0  0  0
  2  3  1  0
  2  1  1  1
  3  4  1  0
  5  4  1  0
  5  6  1  0
  7  6  1  0
  8  9  2  0
  8  2  1  0
 10  8  1  0
 11 10  1  0
 11 12  1  1
 13 12  1  0
 14 13  2  0
 15 14  1  0
 16 15  1  0
 16 17  2  0
 17 13  1  0
 18 11  1  0
 18 19  2  0
 21 20  1  0
 21 22  2  0
 23 21  1  0
 24 25  1  0
 24 23  1  6
 25 18  1  0
 26 24  1  0
 27 26  2  0
 28 26  1  0
M  END
$$$$
