KHN.pdb
     RDKit          3D

 28 28  0  0  1  0  0  0  0  0999 V2000
    7.7300  -13.7179   18.2482 N   0  0  0  0  0  0  0  0  0  0  0  0
    8.7729  -13.6114   19.2294 C   0  0  1  0  0  0  0  0  0  0  0  0
    8.2653  -13.9552   20.5846 C   0  0  0  0  0  0  0  0  0  0  0  0
    7.8087  -12.8059   21.3805 C   0  0  0  0  0  0  0  0  0  0  0  0
    7.2947  -13.1657   22.7403 C   0  0  0  0  0  0  0  0  0  0  0  0
    6.7545  -11.8349   23.3299 C   0  0  0  0  0  0  0  0  0  0  0  0
    6.2619  -12.1418   24.6430 N   0  0  0  0  0  0  0  0  0  0  0  0
    9.8837  -14.5944   18.9264 C   0  0  0  0  0  0  0  0  0  0  0  0
    9.6055  -15.7178   18.4332 O   0  0  0  0  0  0  0  0  0  0  0  0
   11.2466  -14.2787   19.1866 N   0  0  0  0  0  0  0  0  0  0  0  0
   12.2749  -15.2551   18.8902 C   0  0  1  0  0  0  0  0  0  0  0  0
   13.2253  -14.7739   17.8170 C   0  0  0  0  0  0  0  0  0  0  0  0
   12.8325  -15.1860   16.4691 C   0  0  0  0  0  0  0  0  0  0  0  0
   13.0185  -16.3981   15.8565 C   0  0  0  0  0  0  0  0  0  0  0  0
   12.4897  -16.2961   14.6277 N   0  0  0  0  0  0  0  0  0  0  0  0
   11.9794  -15.0676   14.4453 C   0  0  0  0  0  0  0  0  0  0  0  0
   12.1985  -14.4024   15.5829 N   0  0  0  0  0  0  0  0  0  0  0  0
   13.0095  -15.6433   20.1450 C   0  0  0  0  0  0  0  0  0  0  0  0
   13.1962  -14.8193   21.0797 O   0  0  0  0  0  0  0  0  0  0  0  0
   11.7181  -18.5962   22.2755 N   0  0  0  0  0  0  0  0  0  0  0  0
   12.7842  -19.4677   21.9100 C   0  0  0  0  0  0  0  0  0  0  0  0
   12.5374  -20.6755   21.8692 O   0  0  0  0  0  0  0  0  0  0  0  0
   14.0770  -18.8780   21.6132 C   0  0  0  0  0  0  0  0  0  0  0  0
   14.1358  -17.3684   21.6147 C   0  0  2  0  0  0  0  0  0  0  0  0
   13.5213  -16.9534   20.3260 N   0  0  0  0  0  0  0  0  0  0  0  0
   15.5525  -16.9572   21.5763 C   0  0  0  0  0  0  0  0  0  0  0  0
   16.0831  -16.6051   20.5128 O   0  0  0  0  0  0  0  0  0  0  0  0
   16.2998  -16.9627   22.7350 O   0  0  0  0  0  0  0  0  0  0  0  0
  2  3  1  0
  2  1  1  6
  3  4  1  0
  5  4  1  0
  5  6  1  0
  7  6  1  0
  8  9  2  0
  8  2  1  0
 10  8  1  0
 11 10  1  0
 11 12  1  6
 13 12  1  0
 14 13  2  0
 15 14  1  0
 16 15  1  0
 16 17  2  0
 17 13  1  0
 18 11  1  0
 18 19  2  0
 21 20  1  0
 21 22  2  0
 23 21  1  0
 24 25  1  0
 24 23  1  6
 25 18  1  0
 26 24  1  0
 27 26  2  0
 28 26  1  0
M  END
$$$$
