KHN.pdb
     RDKit          3D

 28 28  0  0  1  0  0  0  0  0999 V2000
   11.1596  -17.3851   16.0586 N   0  0  0  0  0  0  0  0  0  0  0  0
   10.4536  -17.7537   17.2534 C   0  0  1  0  0  0  0  0  0  0  0  0
   10.8942  -19.0879   17.7413 C   0  0  0  0  0  0  0  0  0  0  0  0
   10.4214  -20.2244   16.9365 C   0  0  0  0  0  0  0  0  0  0  0  0
   10.8647  -21.5623   17.4427 C   0  0  0  0  0  0  0  0  0  0  0  0
   10.3463  -22.5807   16.3916 C   0  0  0  0  0  0  0  0  0  0  0  0
   10.7475  -23.8801   16.8515 N   0  0  0  0  0  0  0  0  0  0  0  0
   10.7519  -16.7712   18.3659 C   0  0  0  0  0  0  0  0  0  0  0  0
   11.7502  -16.0109   18.2760 O   0  0  0  0  0  0  0  0  0  0  0  0
    9.9256  -16.6836   19.5211 N   0  0  0  0  0  0  0  0  0  0  0  0
   10.2316  -15.7060   20.5454 C   0  0  1  0  0  0  0  0  0  0  0  0
    8.9969  -14.9749   21.0223 C   0  0  0  0  0  0  0  0  0  0  0  0
    8.3711  -14.1569   19.9830 C   0  0  0  0  0  0  0  0  0  0  0  0
    8.7161  -12.8995   19.5601 C   0  0  0  0  0  0  0  0  0  0  0  0
    7.8524  -12.5671   18.5887 N   0  0  0  0  0  0  0  0  0  0  0  0
    6.9790  -13.5664   18.3858 C   0  0  0  0  0  0  0  0  0  0  0  0
    7.3121  -14.5309   19.2481 N   0  0  0  0  0  0  0  0  0  0  0  0
   10.9662  -16.3534   21.6883 C   0  0  0  0  0  0  0  0  0  0  0  0
   10.5462  -17.4137   22.2239 O   0  0  0  0  0  0  0  0  0  0  0  0
   14.9918  -17.4796   24.8967 N   0  0  0  0  0  0  0  0  0  0  0  0
   15.2725  -16.2564   24.2223 C   0  0  0  0  0  0  0  0  0  0  0  0
   16.3493  -15.7087   24.4711 O   0  0  0  0  0  0  0  0  0  0  0  0
   14.2792  -15.7437   23.2963 C   0  0  0  0  0  0  0  0  0  0  0  0
   13.0074  -16.5494   23.1715 C   0  0  2  0  0  0  0  0  0  0  0  0
   12.1617  -15.7956   22.2085 N   0  0  0  0  0  0  0  0  0  0  0  0
   12.3127  -16.5285   24.4732 C   0  0  0  0  0  0  0  0  0  0  0  0
   11.3927  -15.7265   24.6895 O   0  0  0  0  0  0  0  0  0  0  0  0
   12.6877  -17.4102   25.4647 O   0  0  0  0  0  0  0  0  0  0  0  0
  2  3  1  0
  2  1  1  6
  3  4  1  0
  5  4  1  0
  5  6  1  0
  7  6  1  0
  8  9  2  0
  8  2  1  0
 10  8  1  0
 11 10  1  0
 11 12  1  1
 13 12  1  0
 14 13  2  0
 15 14  1  0
 16 15  1  0
 16 17  2  0
 17 13  1  0
 18 11  1  0
 18 19  2  0
 21 20  1  0
 21 22  2  0
 23 21  1  0
 24 25  1  0
 24 23  1  1
 25 18  1  0
 26 24  1  0
 27 26  2  0
 28 26  1  0
M  END
$$$$
