KHN.pdb
     RDKit          3D

 28 28  0  0  1  0  0  0  0  0999 V2000
    7.2487  -16.2283   19.8510 N   0  0  0  0  0  0  0  0  0  0  0  0
    8.3970  -15.3662   19.8475 C   0  0  1  0  0  0  0  0  0  0  0  0
    8.0458  -14.0147   19.3351 C   0  0  0  0  0  0  0  0  0  0  0  0
    7.2528  -14.0131   18.0966 C   0  0  0  0  0  0  0  0  0  0  0  0
    8.0006  -13.5383   16.8890 C   0  0  0  0  0  0  0  0  0  0  0  0
    6.9467  -13.5127   15.7491 C   0  0  0  0  0  0  0  0  0  0  0  0
    7.6406  -13.0983   14.5626 N   0  0  0  0  0  0  0  0  0  0  0  0
    8.9120  -15.1689   21.2575 C   0  0  0  0  0  0  0  0  0  0  0  0
    9.9256  -14.4509   21.4569 O   0  0  0  0  0  0  0  0  0  0  0  0
    8.2743  -15.7794   22.3735 N   0  0  0  0  0  0  0  0  0  0  0  0
    8.9015  -15.7146   23.6777 C   0  0  1  0  0  0  0  0  0  0  0  0
    7.8875  -15.7335   24.7993 C   0  0  0  0  0  0  0  0  0  0  0  0
    7.2666  -14.4306   25.0400 C   0  0  0  0  0  0  0  0  0  0  0  0
    7.5316  -13.2309   24.4322 C   0  0  0  0  0  0  0  0  0  0  0  0
    6.7096  -12.3265   24.9858 N   0  0  0  0  0  0  0  0  0  0  0  0
    5.9394  -12.9117   25.9170 C   0  0  0  0  0  0  0  0  0  0  0  0
    6.2944  -14.1995   25.9361 N   0  0  0  0  0  0  0  0  0  0  0  0
    9.9143  -16.8174   23.8300 C   0  0  0  0  0  0  0  0  0  0  0  0
    9.6705  -17.9922   23.4456 O   0  0  0  0  0  0  0  0  0  0  0  0
   13.1529  -16.9781   22.1944 N   0  0  0  0  0  0  0  0  0  0  0  0
   13.9944  -16.7180   23.3143 C   0  0  0  0  0  0  0  0  0  0  0  0
   15.0932  -16.2054   23.0880 O   0  0  0  0  0  0  0  0  0  0  0  0
   13.5036  -17.0718   24.6338 C   0  0  0  0  0  0  0  0  0  0  0  0
   12.1281  -17.6940   24.6874 C   0  0  2  0  0  0  0  0  0  0  0  0
   11.1848  -16.5781   24.4127 N   0  0  0  0  0  0  0  0  0  0  0  0
   11.8762  -18.1500   26.0680 C   0  0  0  0  0  0  0  0  0  0  0  0
   11.1137  -17.5206   26.8157 O   0  0  0  0  0  0  0  0  0  0  0  0
   12.4941  -19.2898   26.5372 O   0  0  0  0  0  0  0  0  0  0  0  0
  2  3  1  0
  2  1  1  1
  3  4  1  0
  5  4  1  0
  5  6  1  0
  7  6  1  0
  8  9  2  0
  8  2  1  0
 10  8  1  0
 11 10  1  0
 11 12  1  1
 13 12  1  0
 14 13  2  0
 15 14  1  0
 16 15  1  0
 16 17  2  0
 17 13  1  0
 18 11  1  0
 18 19  2  0
 21 20  1  0
 21 22  2  0
 23 21  1  0
 24 25  1  0
 24 23  1  1
 25 18  1  0
 26 24  1  0
 27 26  2  0
 28 26  1  0
M  END
$$$$
