KHN.pdb
     RDKit          3D

 28 28  0  0  1  0  0  0  0  0999 V2000
    7.8928  -16.0742   19.8052 N   0  0  0  0  0  0  0  0  0  0  0  0
    8.8539  -15.0090   19.8636 C   0  0  1  0  0  0  0  0  0  0  0  0
    8.5064  -13.9260   18.9052 C   0  0  0  0  0  0  0  0  0  0  0  0
    7.9321  -14.3905   17.6335 C   0  0  0  0  0  0  0  0  0  0  0  0
    8.4512  -13.6724   16.4262 C   0  0  0  0  0  0  0  0  0  0  0  0
    7.6096  -14.2191   15.2416 C   0  0  0  0  0  0  0  0  0  0  0  0
    8.1146  -13.5848   14.0568 N   0  0  0  0  0  0  0  0  0  0  0  0
    8.8579  -14.3778   21.2397 C   0  0  0  0  0  0  0  0  0  0  0  0
    9.7569  -13.5525   21.5451 O   0  0  0  0  0  0  0  0  0  0  0  0
    7.8627  -14.6959   22.2057 N   0  0  0  0  0  0  0  0  0  0  0  0
    7.9278  -14.0952   23.5223 C   0  0  1  0  0  0  0  0  0  0  0  0
    6.5612  -13.9602   24.1554 C   0  0  0  0  0  0  0  0  0  0  0  0
    6.5762  -13.2060   25.4091 C   0  0  0  0  0  0  0  0  0  0  0  0
    7.2623  -12.0578   25.7090 C   0  0  0  0  0  0  0  0  0  0  0  0
    6.9584  -11.7454   26.9779 N   0  0  0  0  0  0  0  0  0  0  0  0
    6.1088  -12.6525   27.4859 C   0  0  0  0  0  0  0  0  0  0  0  0
    5.8862  -13.5387   26.5113 N   0  0  0  0  0  0  0  0  0  0  0  0
    8.8724  -14.8647   24.4058 C   0  0  0  0  0  0  0  0  0  0  0  0
    8.7249  -14.8961   25.6568 O   0  0  0  0  0  0  0  0  0  0  0  0
   12.1713  -18.3793   26.1850 N   0  0  0  0  0  0  0  0  0  0  0  0
   10.8237  -18.6520   25.8116 C   0  0  0  0  0  0  0  0  0  0  0  0
   10.3586  -19.7474   26.1359 O   0  0  0  0  0  0  0  0  0  0  0  0
   10.0974  -17.6294   25.0809 C   0  0  0  0  0  0  0  0  0  0  0  0
   10.8727  -16.3789   24.7384 C   0  0  2  0  0  0  0  0  0  0  0  0
    9.9672  -15.5861   23.8654 N   0  0  0  0  0  0  0  0  0  0  0  0
   12.0406  -16.7635   23.9226 C   0  0  0  0  0  0  0  0  0  0  0  0
   13.0015  -17.3597   24.4303 O   0  0  0  0  0  0  0  0  0  0  0  0
   12.0684  -16.4585   22.5782 O   0  0  0  0  0  0  0  0  0  0  0  0
  2  3  1  0
  2  1  1  1
  3  4  1  0
  5  4  1  0
  5  6  1  0
  7  6  1  0
  8  9  2  0
  8  2  1  0
 10  8  1  0
 11 10  1  0
 11 12  1  1
 13 12  1  0
 14 13  2  0
 15 14  1  0
 16 15  1  0
 16 17  2  0
 17 13  1  0
 18 11  1  0
 18 19  2  0
 21 20  1  0
 21 22  2  0
 23 21  1  0
 24 25  1  0
 24 23  1  6
 25 18  1  0
 26 24  1  0
 27 26  2  0
 28 26  1  0
M  END
$$$$
