KHN.pdb
     RDKit          3D

 28 28  0  0  1  0  0  0  0  0999 V2000
    5.3125  -24.7371   21.0303 N   0  0  0  0  0  0  0  0  0  0  0  0
    5.0818  -23.8948   22.1701 C   0  0  1  0  0  0  0  0  0  0  0  0
    5.2635  -22.4613   21.8176 C   0  0  0  0  0  0  0  0  0  0  0  0
    6.1426  -22.2179   20.6640 C   0  0  0  0  0  0  0  0  0  0  0  0
    7.1063  -21.0874   20.8537 C   0  0  0  0  0  0  0  0  0  0  0  0
    7.8651  -20.9764   19.5037 C   0  0  0  0  0  0  0  0  0  0  0  0
    8.7884  -19.8861   19.6443 N   0  0  0  0  0  0  0  0  0  0  0  0
    3.6537  -24.0396   22.6516 C   0  0  0  0  0  0  0  0  0  0  0  0
    3.2685  -23.3993   23.6637 O   0  0  0  0  0  0  0  0  0  0  0  0
    2.7270  -24.8881   21.9838 N   0  0  0  0  0  0  0  0  0  0  0  0
    1.3764  -25.0111   22.4930 C   0  0  1  0  0  0  0  0  0  0  0  0
    0.4320  -25.5973   21.4679 C   0  0  0  0  0  0  0  0  0  0  0  0
   -0.9543  -25.6666   21.9310 C   0  0  0  0  0  0  0  0  0  0  0  0
   -1.7800  -26.7585   21.9996 C   0  0  0  0  0  0  0  0  0  0  0  0
   -2.9525  -26.3271   22.4888 N   0  0  0  0  0  0  0  0  0  0  0  0
   -2.8947  -25.0075   22.7296 C   0  0  0  0  0  0  0  0  0  0  0  0
   -1.6641  -24.6207   22.3822 N   0  0  0  0  0  0  0  0  0  0  0  0
    1.3662  -25.8053   23.7714 C   0  0  0  0  0  0  0  0  0  0  0  0
    2.1176  -26.8039   23.9315 O   0  0  0  0  0  0  0  0  0  0  0  0
    0.1042  -27.3134   28.6503 N   0  0  0  0  0  0  0  0  0  0  0  0
    0.1485  -25.8937   28.5384 C   0  0  0  0  0  0  0  0  0  0  0  0
    0.0320  -25.2414   29.5787 O   0  0  0  0  0  0  0  0  0  0  0  0
    0.3264  -25.3182   27.2177 C   0  0  0  0  0  0  0  0  0  0  0  0
    0.4402  -26.2989   26.0743 C   0  0  2  0  0  0  0  0  0  0  0  0
    0.5098  -25.4611   24.8480 N   0  0  0  0  0  0  0  0  0  0  0  0
   -0.8112  -27.0774   26.0017 C   0  0  0  0  0  0  0  0  0  0  0  0
   -1.0164  -28.0238   26.7755 O   0  0  0  0  0  0  0  0  0  0  0  0
   -1.7677  -26.7522   25.0634 O   0  0  0  0  0  0  0  0  0  0  0  0
  2  3  1  0
  2  1  1  6
  3  4  1  0
  5  4  1  0
  5  6  1  0
  7  6  1  0
  8  9  2  0
  8  2  1  0
 10  8  1  0
 11 10  1  0
 11 12  1  6
 13 12  1  0
 14 13  2  0
 15 14  1  0
 16 15  1  0
 16 17  2  0
 17 13  1  0
 18 11  1  0
 18 19  2  0
 21 20  1  0
 21 22  2  0
 23 21  1  0
 24 25  1  0
 24 23  1  1
 25 18  1  0
 26 24  1  0
 27 26  2  0
 28 26  1  0
M  END
$$$$
