KHN.pdb
     RDKit          3D

 28 28  0  0  1  0  0  0  0  0999 V2000
    7.7873  -16.5966   20.5963 N   0  0  0  0  0  0  0  0  0  0  0  0
    8.9422  -15.7665   20.7939 C   0  0  1  0  0  0  0  0  0  0  0  0
    8.7797  -14.4570   20.1074 C   0  0  0  0  0  0  0  0  0  0  0  0
    8.4165  -14.5487   18.6853 C   0  0  0  0  0  0  0  0  0  0  0  0
    8.3176  -13.2259   17.9900 C   0  0  0  0  0  0  0  0  0  0  0  0
    7.8215  -13.5618   16.5577 C   0  0  0  0  0  0  0  0  0  0  0  0
    7.6851  -12.3090   15.8700 N   0  0  0  0  0  0  0  0  0  0  0  0
    9.1245  -15.4589   22.2650 C   0  0  0  0  0  0  0  0  0  0  0  0
   10.1104  -14.7744   22.6419 O   0  0  0  0  0  0  0  0  0  0  0  0
    8.2019  -15.9274   23.2418 N   0  0  0  0  0  0  0  0  0  0  0  0
    8.5022  -15.7549   24.6484 C   0  0  1  0  0  0  0  0  0  0  0  0
    7.2694  -15.4201   25.4575 C   0  0  0  0  0  0  0  0  0  0  0  0
    7.0582  -13.9816   25.6220 C   0  0  0  0  0  0  0  0  0  0  0  0
    7.8464  -12.9461   25.1913 C   0  0  0  0  0  0  0  0  0  0  0  0
    7.2410  -11.8125   25.5765 N   0  0  0  0  0  0  0  0  0  0  0  0
    6.1041  -12.0960   26.2320 C   0  0  0  0  0  0  0  0  0  0  0  0
    6.0088  -13.4285   26.2500 N   0  0  0  0  0  0  0  0  0  0  0  0
    9.2048  -16.9708   25.1896 C   0  0  0  0  0  0  0  0  0  0  0  0
    8.8937  -18.1323   24.8133 O   0  0  0  0  0  0  0  0  0  0  0  0
   12.1120  -18.8856   24.3987 N   0  0  0  0  0  0  0  0  0  0  0  0
   12.9621  -18.3164   25.3903 C   0  0  0  0  0  0  0  0  0  0  0  0
   14.1669  -18.2545   25.1331 O   0  0  0  0  0  0  0  0  0  0  0  0
   12.3558  -17.8524   26.6248 C   0  0  0  0  0  0  0  0  0  0  0  0
   10.8657  -18.0642   26.7550 C   0  0  2  0  0  0  0  0  0  0  0  0
   10.2461  -16.8579   26.1456 N   0  0  0  0  0  0  0  0  0  0  0  0
   10.5175  -18.0579   28.1889 C   0  0  0  0  0  0  0  0  0  0  0  0
    9.9706  -17.0727   28.7055 O   0  0  0  0  0  0  0  0  0  0  0  0
   10.8018  -19.1591   28.9684 O   0  0  0  0  0  0  0  0  0  0  0  0
  2  3  1  0
  2  1  1  1
  3  4  1  0
  5  4  1  0
  5  6  1  0
  7  6  1  0
  8  9  2  0
  8  2  1  0
 10  8  1  0
 11 10  1  0
 11 12  1  1
 13 12  1  0
 14 13  2  0
 15 14  1  0
 16 15  1  0
 16 17  2  0
 17 13  1  0
 18 11  1  0
 18 19  2  0
 21 20  1  0
 21 22  2  0
 23 21  1  0
 24 25  1  0
 24 23  1  1
 25 18  1  0
 26 24  1  0
 27 26  2  0
 28 26  1  0
M  END
$$$$
