AQS.pdb
     RDKit          3D

 21 20  0  0  1  0  0  0  0  0999 V2000
   18.3072  -15.7688  -17.4351 C   0  0  0  0  0  0  0  0  0  0  0  0
   18.9482  -14.6674  -16.6139 C   0  0  2  0  0  0  0  0  0  0  0  0
   18.7461  -14.9673  -15.2246 N   0  0  0  0  0  0  0  0  0  0  0  0
   18.4094  -13.3277  -16.9931 C   0  0  0  0  0  0  0  0  0  0  0  0
   18.6056  -12.8994  -18.1442 O   0  0  0  0  0  0  0  0  0  0  0  0
   13.2810  -11.0442  -14.4937 N   0  0  0  0  0  0  0  0  0  0  0  0
   13.7826  -12.3532  -14.7312 C   0  0  0  0  0  0  0  0  0  0  0  0
   13.2187  -13.2878  -14.1354 O   0  0  0  0  0  0  0  0  0  0  0  0
   14.9061  -12.5806  -15.6273 C   0  0  0  0  0  0  0  0  0  0  0  0
   15.5418  -11.4172  -16.2940 C   0  0  0  0  0  0  0  0  0  0  0  0
   16.9944  -11.3197  -16.3391 C   0  0  2  0  0  0  0  0  0  0  0  0
   17.6773  -12.5409  -16.0540 N   0  0  0  0  0  0  0  0  0  0  0  0
   17.6146  -10.1653  -15.6453 C   0  0  0  0  0  0  0  0  0  0  0  0
   17.9721  -10.3113  -14.4548 O   0  0  0  0  0  0  0  0  0  0  0  0
   18.6552   -7.0283  -17.8294 O   0  0  0  0  0  0  0  0  0  0  0  0
   19.3258   -7.1219  -16.6133 C   0  0  0  0  0  0  0  0  0  0  0  0
   18.3708   -7.8321  -15.6484 C   0  0  2  0  0  0  0  0  0  0  0  0
   17.7846   -8.9360  -16.3462 N   0  0  0  0  0  0  0  0  0  0  0  0
   17.3373   -6.8352  -15.2826 C   0  0  0  0  0  0  0  0  0  0  0  0
   17.6673   -5.6999  -14.5598 O   0  0  0  0  0  0  0  0  0  0  0  0
   16.1389   -6.9926  -15.6168 O   0  0  0  0  0  0  0  0  0  0  0  0
  2  1  1  6
  3  2  1  0
  4  2  1  0
  4 12  1  0
  5  4  2  0
  6  7  1  0
  7  8  2  0
  9 10  1  0
  9  7  1  0
 11 10  1  1
 11 12  1  0
 11 13  1  0
 13 14  2  0
 13 18  1  0
 15 16  1  0
 17 16  1  6
 17 19  1  0
 18 17  1  0
 19 21  2  0
 19 20  1  0
M  END
$$$$
