AQS.pdb
     RDKit          3D

 21 20  0  0  1  0  0  0  0  0999 V2000
   27.2100  -19.0472  -19.2061 C   0  0  0  0  0  0  0  0  0  0  0  0
   27.5164  -19.9564  -18.0323 C   0  0  2  0  0  0  0  0  0  0  0  0
   27.1584  -21.2977  -18.3977 N   0  0  0  0  0  0  0  0  0  0  0  0
   26.8183  -19.4957  -16.7957 C   0  0  0  0  0  0  0  0  0  0  0  0
   27.0335  -18.3468  -16.3707 O   0  0  0  0  0  0  0  0  0  0  0  0
   21.3172  -17.4385  -15.9388 N   0  0  0  0  0  0  0  0  0  0  0  0
   21.9173  -18.6593  -16.3524 C   0  0  0  0  0  0  0  0  0  0  0  0
   21.1673  -19.5093  -16.8637 O   0  0  0  0  0  0  0  0  0  0  0  0
   23.3420  -18.8977  -16.1784 C   0  0  0  0  0  0  0  0  0  0  0  0
   23.7945  -19.7795  -15.0740 C   0  0  0  0  0  0  0  0  0  0  0  0
   25.2170  -20.0383  -14.8974 C   0  0  2  0  0  0  0  0  0  0  0  0
   25.9136  -20.3552  -16.1029 N   0  0  0  0  0  0  0  0  0  0  0  0
   25.6058  -20.9358  -13.7829 C   0  0  0  0  0  0  0  0  0  0  0  0
   25.2871  -22.1439  -13.8557 O   0  0  0  0  0  0  0  0  0  0  0  0
   28.7388  -20.9587  -11.5340 O   0  0  0  0  0  0  0  0  0  0  0  0
   27.6467  -20.7278  -10.7025 C   0  0  0  0  0  0  0  0  0  0  0  0
   26.4091  -21.1887  -11.4793 C   0  0  2  0  0  0  0  0  0  0  0  0
   26.3239  -20.4032  -12.6729 N   0  0  0  0  0  0  0  0  0  0  0  0
   25.2475  -20.9285  -10.5969 C   0  0  0  0  0  0  0  0  0  0  0  0
   25.1062  -21.5956   -9.3905 O   0  0  0  0  0  0  0  0  0  0  0  0
   24.3634  -20.0992  -10.9181 O   0  0  0  0  0  0  0  0  0  0  0  0
  2  1  1  6
  3  2  1  0
  4  2  1  0
  4 12  1  0
  5  4  2  0
  6  7  1  0
  7  8  2  0
  9 10  1  0
  9  7  1  0
 11 10  1  6
 11 12  1  0
 11 13  1  0
 13 14  2  0
 13 18  1  0
 15 16  1  0
 17 16  1  1
 17 19  1  0
 18 17  1  0
 19 21  2  0
 19 20  1  0
M  END
$$$$
