AQS.pdb
     RDKit          3D

 21 20  0  0  1  0  0  0  0  0999 V2000
   15.4537  -10.9693  -15.3740 C   0  0  0  0  0  0  0  0  0  0  0  0
   16.9379  -10.6629  -15.3356 C   0  0  2  0  0  0  0  0  0  0  0  0
   17.6555  -11.8970  -15.4862 N   0  0  0  0  0  0  0  0  0  0  0  0
   17.3071   -9.9368  -14.0844 C   0  0  0  0  0  0  0  0  0  0  0  0
   17.3540  -10.5638  -13.0113 O   0  0  0  0  0  0  0  0  0  0  0  0
   21.5373   -5.2730  -13.8685 N   0  0  0  0  0  0  0  0  0  0  0  0
   21.6467   -6.6899  -13.9112 C   0  0  0  0  0  0  0  0  0  0  0  0
   22.7627   -7.1592  -14.1957 O   0  0  0  0  0  0  0  0  0  0  0  0
   20.5013   -7.5446  -13.6382 C   0  0  0  0  0  0  0  0  0  0  0  0
   19.2045   -6.9178  -13.2813 C   0  0  0  0  0  0  0  0  0  0  0  0
   18.0514   -7.7619  -12.9991 C   0  0  2  0  0  0  0  0  0  0  0  0
   17.6043   -8.5410  -14.1091 N   0  0  0  0  0  0  0  0  0  0  0  0
   16.9204   -7.1372  -12.2717 C   0  0  0  0  0  0  0  0  0  0  0  0
   16.0226   -6.5772  -12.9401 O   0  0  0  0  0  0  0  0  0  0  0  0
   16.7747   -7.6755   -8.3616 O   0  0  0  0  0  0  0  0  0  0  0  0
   15.5330   -7.3140   -8.8763 C   0  0  0  0  0  0  0  0  0  0  0  0
   15.8116   -6.5378  -10.1676 C   0  0  2  0  0  0  0  0  0  0  0  0
   16.8879   -7.1920  -10.8479 N   0  0  0  0  0  0  0  0  0  0  0  0
   16.2082   -5.1723   -9.7508 C   0  0  0  0  0  0  0  0  0  0  0  0
   15.2877   -4.3053   -9.1841 O   0  0  0  0  0  0  0  0  0  0  0  0
   17.3852   -4.7662   -9.8998 O   0  0  0  0  0  0  0  0  0  0  0  0
  2  1  1  1
  3  2  1  0
  4  2  1  0
  4 12  1  0
  5  4  2  0
  6  7  1  0
  7  8  2  0
  9 10  1  0
  9  7  1  0
 11 10  1  6
 11 12  1  0
 11 13  1  0
 13 14  2  0
 13 18  1  0
 15 16  1  0
 17 16  1  1
 17 19  1  0
 18 17  1  0
 19 21  2  0
 19 20  1  0
M  END
$$$$
