AQS.pdb
     RDKit          3D

 21 20  0  0  1  0  0  0  0  0999 V2000
   15.3522  -12.2998  -11.5313 C   0  0  0  0  0  0  0  0  0  0  0  0
   14.9971  -11.2432  -10.5037 C   0  0  2  0  0  0  0  0  0  0  0  0
   13.6084  -11.3894  -10.1706 N   0  0  0  0  0  0  0  0  0  0  0  0
   15.3239   -9.8743  -11.0017 C   0  0  0  0  0  0  0  0  0  0  0  0
   14.4360   -9.2035  -11.5572 O   0  0  0  0  0  0  0  0  0  0  0  0
   15.3241   -4.7169   -8.9838 N   0  0  0  0  0  0  0  0  0  0  0  0
   15.7602   -5.8891   -8.3077 C   0  0  0  0  0  0  0  0  0  0  0  0
   15.6591   -5.8935   -7.0682 O   0  0  0  0  0  0  0  0  0  0  0  0
   16.3024   -7.0248   -9.0379 C   0  0  0  0  0  0  0  0  0  0  0  0
   16.4214   -6.9405  -10.5146 C   0  0  0  0  0  0  0  0  0  0  0  0
   17.0541   -8.0283  -11.2482 C   0  0  2  0  0  0  0  0  0  0  0  0
   16.6355   -9.3331  -10.8469 N   0  0  0  0  0  0  0  0  0  0  0  0
   18.5234   -7.9521  -11.4326 C   0  0  0  0  0  0  0  0  0  0  0  0
   19.2581   -8.4564  -10.5538 O   0  0  0  0  0  0  0  0  0  0  0  0
   22.1653   -7.9352  -14.2581 O   0  0  0  0  0  0  0  0  0  0  0  0
   20.7788   -7.9229  -14.1367 C   0  0  0  0  0  0  0  0  0  0  0  0
   20.4716   -7.2985  -12.7717 C   0  0  2  0  0  0  0  0  0  0  0  0
   19.0515   -7.3145  -12.5927 N   0  0  0  0  0  0  0  0  0  0  0  0
   20.9765   -5.9067  -12.8316 C   0  0  0  0  0  0  0  0  0  0  0  0
   22.2495   -5.5912  -12.3843 O   0  0  0  0  0  0  0  0  0  0  0  0
   20.2662   -4.9794  -13.2879 O   0  0  0  0  0  0  0  0  0  0  0  0
  2  1  1  6
  3  2  1  0
  4  2  1  0
  4 12  1  0
  5  4  2  0
  6  7  1  0
  7  8  2  0
  9 10  1  0
  9  7  1  0
 11 10  1  1
 11 12  1  0
 11 13  1  0
 13 14  2  0
 13 18  1  0
 15 16  1  0
 17 16  1  6
 17 19  1  0
 18 17  1  0
 19 21  2  0
 19 20  1  0
M  END
$$$$
