AQS.pdb
     RDKit          3D

 21 20  0  0  1  0  0  0  0  0999 V2000
   25.2749  -32.1907   -4.6598 C   0  0  0  0  0  0  0  0  0  0  0  0
   25.3915  -33.5825   -5.2493 C   0  0  2  0  0  0  0  0  0  0  0  0
   24.4377  -33.7000   -6.3157 N   0  0  0  0  0  0  0  0  0  0  0  0
   25.2084  -34.6299   -4.2013 C   0  0  0  0  0  0  0  0  0  0  0  0
   24.0589  -35.0166   -3.9255 O   0  0  0  0  0  0  0  0  0  0  0  0
   25.0565  -40.3056   -4.2311 N   0  0  0  0  0  0  0  0  0  0  0  0
   25.7155  -39.4558   -3.3010 C   0  0  0  0  0  0  0  0  0  0  0  0
   25.5451  -39.7040   -2.0944 O   0  0  0  0  0  0  0  0  0  0  0  0
   26.5452  -38.3470   -3.7472 C   0  0  0  0  0  0  0  0  0  0  0  0
   27.0430  -37.3721   -2.7455 C   0  0  0  0  0  0  0  0  0  0  0  0
   26.2776  -36.1620   -2.4776 C   0  0  2  0  0  0  0  0  0  0  0  0
   26.3316  -35.1866   -3.5190 N   0  0  0  0  0  0  0  0  0  0  0  0
   26.4346  -35.5478   -1.1372 C   0  0  0  0  0  0  0  0  0  0  0  0
   27.2814  -34.6369   -0.9979 O   0  0  0  0  0  0  0  0  0  0  0  0
   24.5702  -34.7380    3.1251 O   0  0  0  0  0  0  0  0  0  0  0  0
   24.4125  -35.4237    1.9242 C   0  0  0  0  0  0  0  0  0  0  0  0
   25.7710  -35.3728    1.2176 C   0  0  2  0  0  0  0  0  0  0  0  0
   25.6252  -36.0068   -0.0575 N   0  0  0  0  0  0  0  0  0  0  0  0
   26.7110  -36.1318    2.0756 C   0  0  0  0  0  0  0  0  0  0  0  0
   27.4832  -35.4878    3.0290 O   0  0  0  0  0  0  0  0  0  0  0  0
   26.8320  -37.3748    1.9615 O   0  0  0  0  0  0  0  0  0  0  0  0
  2  1  1  1
  3  2  1  0
  4  2  1  0
  4 12  1  0
  5  4  2  0
  6  7  1  0
  7  8  2  0
  9 10  1  0
  9  7  1  0
 11 10  1  6
 11 12  1  0
 11 13  1  0
 13 14  2  0
 13 18  1  0
 15 16  1  0
 17 16  1  1
 17 19  1  0
 18 17  1  0
 19 21  2  0
 19 20  1  0
M  END
$$$$
