AQS.pdb
     RDKit          3D

 21 20  0  0  1  0  0  0  0  0999 V2000
   16.5472  -10.5332  -15.7122 C   0  0  0  0  0  0  0  0  0  0  0  0
   16.5921   -9.2260  -16.4786 C   0  0  2  0  0  0  0  0  0  0  0  0
   17.4605   -9.3974  -17.6088 N   0  0  0  0  0  0  0  0  0  0  0  0
   17.0170   -8.0979  -15.5979 C   0  0  0  0  0  0  0  0  0  0  0  0
   16.3223   -7.8072  -14.6080 O   0  0  0  0  0  0  0  0  0  0  0  0
   22.8937   -6.2123  -14.1096 N   0  0  0  0  0  0  0  0  0  0  0  0
   22.0873   -5.0817  -13.8051 C   0  0  0  0  0  0  0  0  0  0  0  0
   22.6350   -4.1498  -13.1901 O   0  0  0  0  0  0  0  0  0  0  0  0
   20.6862   -5.0263  -14.1939 C   0  0  0  0  0  0  0  0  0  0  0  0
   20.0859   -6.1914  -14.8896 C   0  0  0  0  0  0  0  0  0  0  0  0
   18.6566   -6.2030  -15.1704 C   0  0  2  0  0  0  0  0  0  0  0  0
   18.2036   -7.3566  -15.8796 N   0  0  0  0  0  0  0  0  0  0  0  0
   18.0656   -4.9552  -15.7109 C   0  0  0  0  0  0  0  0  0  0  0  0
   18.1942   -4.7192  -16.9333 O   0  0  0  0  0  0  0  0  0  0  0  0
   14.9046   -1.5583  -15.5011 O   0  0  0  0  0  0  0  0  0  0  0  0
   15.3785   -2.7531  -14.9669 C   0  0  0  0  0  0  0  0  0  0  0  0
   16.8533   -2.8502  -15.3708 C   0  0  2  0  0  0  0  0  0  0  0  0
   17.3749   -4.0699  -14.8330 N   0  0  0  0  0  0  0  0  0  0  0  0
   17.5260   -1.6789  -14.7615 C   0  0  0  0  0  0  0  0  0  0  0  0
   17.3439   -0.4055  -15.2767 O   0  0  0  0  0  0  0  0  0  0  0  0
   18.2765   -1.8092  -13.7653 O   0  0  0  0  0  0  0  0  0  0  0  0
  2  1  1  1
  3  2  1  0
  4  2  1  0
  4 12  1  0
  5  4  2  0
  6  7  1  0
  7  8  2  0
  9 10  1  0
  9  7  1  0
 11 10  1  6
 11 12  1  0
 11 13  1  0
 13 14  2  0
 13 18  1  0
 15 16  1  0
 17 16  1  1
 17 19  1  0
 18 17  1  0
 19 21  2  0
 19 20  1  0
M  END
$$$$
