AQS.pdb
     RDKit          3D

 21 20  0  0  1  0  0  0  0  0999 V2000
   21.5836  -11.6479  -20.4499 C   0  0  0  0  0  0  0  0  0  0  0  0
   21.7366  -11.3487  -18.9717 C   0  0  2  0  0  0  0  0  0  0  0  0
   20.7775  -12.1379  -18.2519 N   0  0  0  0  0  0  0  0  0  0  0  0
   21.5940   -9.8879  -18.6988 C   0  0  0  0  0  0  0  0  0  0  0  0
   22.4978   -9.1131  -19.0589 O   0  0  0  0  0  0  0  0  0  0  0  0
   15.8812   -6.9952  -18.0708 N   0  0  0  0  0  0  0  0  0  0  0  0
   16.8319   -5.9904  -17.7420 C   0  0  0  0  0  0  0  0  0  0  0  0
   16.3902   -4.8485  -17.5242 O   0  0  0  0  0  0  0  0  0  0  0  0
   18.2538   -6.2904  -17.6701 C   0  0  0  0  0  0  0  0  0  0  0  0
   18.7079   -7.6841  -17.9013 C   0  0  0  0  0  0  0  0  0  0  0  0
   20.1291   -7.9971  -17.8380 C   0  0  2  0  0  0  0  0  0  0  0  0
   20.4390   -9.3771  -18.0338 N   0  0  0  0  0  0  0  0  0  0  0  0
   20.8988   -7.4124  -16.7137 C   0  0  0  0  0  0  0  0  0  0  0  0
   21.0663   -8.1063  -15.6856 O   0  0  0  0  0  0  0  0  0  0  0  0
   24.3920   -4.7894  -15.3069 O   0  0  0  0  0  0  0  0  0  0  0  0
   23.6285   -5.2952  -16.3550 C   0  0  0  0  0  0  0  0  0  0  0  0
   22.2404   -5.5861  -15.7752 C   0  0  2  0  0  0  0  0  0  0  0  0
   21.4209   -6.0917  -16.8343 N   0  0  0  0  0  0  0  0  0  0  0  0
   21.7190   -4.2895  -15.2826 C   0  0  0  0  0  0  0  0  0  0  0  0
   21.9650   -3.8699  -13.9851 O   0  0  0  0  0  0  0  0  0  0  0  0
   21.0427   -3.5393  -16.0257 O   0  0  0  0  0  0  0  0  0  0  0  0
  2  1  1  6
  3  2  1  0
  4  2  1  0
  4 12  1  0
  5  4  2  0
  6  7  1  0
  7  8  2  0
  9 10  1  0
  9  7  1  0
 11 10  1  1
 11 12  1  0
 11 13  1  0
 13 14  2  0
 13 18  1  0
 15 16  1  0
 17 16  1  6
 17 19  1  0
 18 17  1  0
 19 21  2  0
 19 20  1  0
M  END
$$$$
