AQS.pdb
     RDKit          3D

 21 20  0  0  1  0  0  0  0  0999 V2000
   20.3993  -22.5562  -15.3900 C   0  0  0  0  0  0  0  0  0  0  0  0
   20.7535  -21.8613  -14.0901 C   0  0  2  0  0  0  0  0  0  0  0  0
   19.6556  -21.0135  -13.7203 N   0  0  0  0  0  0  0  0  0  0  0  0
   22.0385  -21.1110  -14.2115 C   0  0  0  0  0  0  0  0  0  0  0  0
   22.0289  -19.9682  -14.7021 O   0  0  0  0  0  0  0  0  0  0  0  0
   26.7302  -21.6607  -10.0153 N   0  0  0  0  0  0  0  0  0  0  0  0
   25.5753  -20.8316  -10.0294 C   0  0  0  0  0  0  0  0  0  0  0  0
   25.2361  -20.3219   -8.9469 O   0  0  0  0  0  0  0  0  0  0  0  0
   24.8277  -20.5984  -11.2556 C   0  0  0  0  0  0  0  0  0  0  0  0
   25.2894  -21.2378  -12.5126 C   0  0  0  0  0  0  0  0  0  0  0  0
   24.5356  -21.0335  -13.7422 C   0  0  2  0  0  0  0  0  0  0  0  0
   23.2675  -21.6892  -13.7732 N   0  0  0  0  0  0  0  0  0  0  0  0
   25.2719  -21.1948  -15.0191 C   0  0  0  0  0  0  0  0  0  0  0  0
   25.5919  -22.3506  -15.3771 O   0  0  0  0  0  0  0  0  0  0  0  0
   25.9578  -20.2780  -19.3530 O   0  0  0  0  0  0  0  0  0  0  0  0
   25.2633  -20.0577  -18.1670 C   0  0  0  0  0  0  0  0  0  0  0  0
   26.2810  -20.2270  -17.0343 C   0  0  2  0  0  0  0  0  0  0  0  0
   25.5904  -20.0419  -15.7942 N   0  0  0  0  0  0  0  0  0  0  0  0
   27.2976  -19.1670  -17.2311 C   0  0  0  0  0  0  0  0  0  0  0  0
   27.2510  -17.9910  -16.4997 O   0  0  0  0  0  0  0  0  0  0  0  0
   28.2252  -19.3062  -18.0635 O   0  0  0  0  0  0  0  0  0  0  0  0
  2  1  1  6
  3  2  1  0
  4  2  1  0
  4 12  1  0
  5  4  2  0
  6  7  1  0
  7  8  2  0
  9 10  1  0
  9  7  1  0
 11 10  1  1
 11 12  1  0
 11 13  1  0
 13 14  2  0
 13 18  1  0
 15 16  1  0
 17 16  1  6
 17 19  1  0
 18 17  1  0
 19 21  2  0
 19 20  1  0
M  END
$$$$
