AQS.pdb
     RDKit          3D

 21 20  0  0  1  0  0  0  0  0999 V2000
   22.7480  -11.9761  -15.5617 C   0  0  0  0  0  0  0  0  0  0  0  0
   21.3668  -11.8368  -16.1709 C   0  0  2  0  0  0  0  0  0  0  0  0
   21.3942  -12.4169  -17.4837 N   0  0  0  0  0  0  0  0  0  0  0  0
   20.9245  -10.4109  -16.1858 C   0  0  0  0  0  0  0  0  0  0  0  0
   21.3850   -9.6426  -17.0487 O   0  0  0  0  0  0  0  0  0  0  0  0
   16.0997   -7.5745  -16.5494 N   0  0  0  0  0  0  0  0  0  0  0  0
   16.5075   -6.7111  -15.4959 C   0  0  0  0  0  0  0  0  0  0  0  0
   15.9611   -5.5954  -15.4404 O   0  0  0  0  0  0  0  0  0  0  0  0
   17.5204   -7.1189  -14.5343 C   0  0  0  0  0  0  0  0  0  0  0  0
   18.1354   -8.4631  -14.6632 C   0  0  0  0  0  0  0  0  0  0  0  0
   19.5113   -8.5830  -15.1258 C   0  0  2  0  0  0  0  0  0  0  0  0
   19.9856   -9.9260  -15.2264 N   0  0  0  0  0  0  0  0  0  0  0  0
   20.5140   -7.6889  -14.4982 C   0  0  0  0  0  0  0  0  0  0  0  0
   21.1038   -8.0892  -13.4695 O   0  0  0  0  0  0  0  0  0  0  0  0
   23.7281   -4.3870  -14.9211 O   0  0  0  0  0  0  0  0  0  0  0  0
   22.8280   -5.2619  -15.5226 C   0  0  0  0  0  0  0  0  0  0  0  0
   21.7646   -5.5792  -14.4663 C   0  0  2  0  0  0  0  0  0  0  0  0
   20.7753   -6.4134  -15.0781 N   0  0  0  0  0  0  0  0  0  0  0  0
   21.1786   -4.2781  -14.0670 C   0  0  0  0  0  0  0  0  0  0  0  0
   21.7489   -3.5203  -13.0568 O   0  0  0  0  0  0  0  0  0  0  0  0
   20.1529   -3.8294  -14.6320 O   0  0  0  0  0  0  0  0  0  0  0  0
  2  1  1  6
  3  2  1  0
  4  2  1  0
  4 12  1  0
  5  4  2  0
  6  7  1  0
  7  8  2  0
  9 10  1  0
  9  7  1  0
 11 10  1  1
 11 12  1  0
 11 13  1  0
 13 14  2  0
 13 18  1  0
 15 16  1  0
 17 16  1  6
 17 19  1  0
 18 17  1  0
 19 21  2  0
 19 20  1  0
M  END
$$$$
