AQS.pdb
     RDKit          3D

 21 20  0  0  1  0  0  0  0  0999 V2000
   19.3010  -11.4271  -18.2700 C   0  0  0  0  0  0  0  0  0  0  0  0
   20.7687  -11.7403  -18.0553 C   0  0  2  0  0  0  0  0  0  0  0  0
   20.8994  -13.1533  -17.8383 N   0  0  0  0  0  0  0  0  0  0  0  0
   21.3338  -10.9354  -16.9321 C   0  0  0  0  0  0  0  0  0  0  0  0
   20.7720  -10.9649  -15.8228 O   0  0  0  0  0  0  0  0  0  0  0  0
   27.4294  -10.0054  -15.8368 N   0  0  0  0  0  0  0  0  0  0  0  0
   26.5270  -11.0993  -15.7353 C   0  0  0  0  0  0  0  0  0  0  0  0
   27.0260  -12.2257  -15.5657 O   0  0  0  0  0  0  0  0  0  0  0  0
   25.0884  -10.9033  -15.8309 C   0  0  0  0  0  0  0  0  0  0  0  0
   24.5585   -9.5260  -15.9866 C   0  0  0  0  0  0  0  0  0  0  0  0
   23.1236   -9.3194  -16.1275 C   0  0  2  0  0  0  0  0  0  0  0  0
   22.5035  -10.1391  -17.1187 N   0  0  0  0  0  0  0  0  0  0  0  0
   22.6478   -7.9166  -16.1945 C   0  0  0  0  0  0  0  0  0  0  0  0
   22.6620   -7.3381  -17.3042 O   0  0  0  0  0  0  0  0  0  0  0  0
   19.4880   -6.6075  -15.0756 O   0  0  0  0  0  0  0  0  0  0  0  0
   20.3927   -5.8344  -14.3536 C   0  0  0  0  0  0  0  0  0  0  0  0
   21.7274   -5.9235  -15.1006 C   0  0  2  0  0  0  0  0  0  0  0  0
   22.1922   -7.2741  -15.0066 N   0  0  0  0  0  0  0  0  0  0  0  0
   22.6533   -5.0010  -14.4026 C   0  0  0  0  0  0  0  0  0  0  0  0
   22.4499   -3.6306  -14.4324 O   0  0  0  0  0  0  0  0  0  0  0  0
   23.6435   -5.4355  -13.7676 O   0  0  0  0  0  0  0  0  0  0  0  0
  2  1  1  1
  3  2  1  0
  4  2  1  0
  4 12  1  0
  5  4  2  0
  6  7  1  0
  7  8  2  0
  9 10  1  0
  9  7  1  0
 11 10  1  6
 11 12  1  0
 11 13  1  0
 13 14  2  0
 13 18  1  0
 15 16  1  0
 17 16  1  1
 17 19  1  0
 18 17  1  0
 19 21  2  0
 19 20  1  0
M  END
$$$$
