AQS.pdb
     RDKit          3D

 21 20  0  0  1  0  0  0  0  0999 V2000
   22.9516  -11.4687  -18.1910 C   0  0  0  0  0  0  0  0  0  0  0  0
   21.6247  -11.6853  -17.4904 C   0  0  2  0  0  0  0  0  0  0  0  0
   20.8376  -12.5836  -18.2869 N   0  0  0  0  0  0  0  0  0  0  0  0
   20.9298  -10.3884  -17.2371 C   0  0  0  0  0  0  0  0  0  0  0  0
   20.5867   -9.6858  -18.2043 O   0  0  0  0  0  0  0  0  0  0  0  0
   16.3504   -9.1742  -13.3244 N   0  0  0  0  0  0  0  0  0  0  0  0
   16.4359   -9.6056  -14.6764 C   0  0  0  0  0  0  0  0  0  0  0  0
   15.4268  -10.1504  -15.1574 O   0  0  0  0  0  0  0  0  0  0  0  0
   17.6518   -9.4190  -15.4534 C   0  0  0  0  0  0  0  0  0  0  0  0
   18.8323   -8.7967  -14.8044 C   0  0  0  0  0  0  0  0  0  0  0  0
   20.0864   -8.6959  -15.5383 C   0  0  2  0  0  0  0  0  0  0  0  0
   20.6581   -9.9517  -15.9058 N   0  0  0  0  0  0  0  0  0  0  0  0
   21.1058   -7.7600  -15.0059 C   0  0  0  0  0  0  0  0  0  0  0  0
   21.9363   -8.1964  -14.1775 O   0  0  0  0  0  0  0  0  0  0  0  0
   23.1552   -3.4609  -15.3487 O   0  0  0  0  0  0  0  0  0  0  0  0
   22.1174   -4.2625  -15.8154 C   0  0  0  0  0  0  0  0  0  0  0  0
   22.1434   -5.5378  -14.9667 C   0  0  2  0  0  0  0  0  0  0  0  0
   21.1113   -6.4050  -15.4481 N   0  0  0  0  0  0  0  0  0  0  0  0
   21.8640   -5.1131  -13.5749 C   0  0  0  0  0  0  0  0  0  0  0  0
   22.8961   -4.8888  -12.6780 O   0  0  0  0  0  0  0  0  0  0  0  0
   20.6880   -4.9457  -13.1729 O   0  0  0  0  0  0  0  0  0  0  0  0
  2  1  1  6
  3  2  1  0
  4  2  1  0
  4 12  1  0
  5  4  2  0
  6  7  1  0
  7  8  2  0
  9 10  1  0
  9  7  1  0
 11 10  1  1
 11 12  1  0
 11 13  1  0
 13 14  2  0
 13 18  1  0
 15 16  1  0
 17 16  1  6
 17 19  1  0
 18 17  1  0
 19 21  2  0
 19 20  1  0
M  END
$$$$
