AQS.pdb
     RDKit          3D

 21 20  0  0  1  0  0  0  0  0999 V2000
   19.2783  -12.2375  -17.2478 C   0  0  0  0  0  0  0  0  0  0  0  0
   20.7366  -12.5549  -16.9815 C   0  0  2  0  0  0  0  0  0  0  0  0
   20.8062  -13.8292  -16.3242 N   0  0  0  0  0  0  0  0  0  0  0  0
   21.3902  -11.4690  -16.1925 C   0  0  0  0  0  0  0  0  0  0  0  0
   20.8353  -11.0516  -15.1606 O   0  0  0  0  0  0  0  0  0  0  0  0
   27.6966  -10.4097  -16.0648 N   0  0  0  0  0  0  0  0  0  0  0  0
   26.8742  -11.4233  -15.5012 C   0  0  0  0  0  0  0  0  0  0  0  0
   27.4506  -12.4300  -15.0528 O   0  0  0  0  0  0  0  0  0  0  0  0
   25.4265  -11.2845  -15.4584 C   0  0  0  0  0  0  0  0  0  0  0  0
   24.8075  -10.0381  -15.9733 C   0  0  0  0  0  0  0  0  0  0  0  0
   23.3598   -9.8834  -15.9305 C   0  0  2  0  0  0  0  0  0  0  0  0
   22.6359  -10.9104  -16.6088 N   0  0  0  0  0  0  0  0  0  0  0  0
   22.8165   -8.5362  -16.2282 C   0  0  0  0  0  0  0  0  0  0  0  0
   22.5729   -8.2455  -17.4209 O   0  0  0  0  0  0  0  0  0  0  0  0
   20.0523   -5.1596  -15.7621 O   0  0  0  0  0  0  0  0  0  0  0  0
   20.5323   -6.4295  -15.4551 C   0  0  0  0  0  0  0  0  0  0  0  0
   22.0610   -6.3281  -15.4736 C   0  0  2  0  0  0  0  0  0  0  0  0
   22.5892   -7.6209  -15.1596 N   0  0  0  0  0  0  0  0  0  0  0  0
   22.4220   -5.3457  -14.4247 C   0  0  0  0  0  0  0  0  0  0  0  0
   22.4189   -3.9859  -14.6914 O   0  0  0  0  0  0  0  0  0  0  0  0
   22.7393   -5.7185  -13.2702 O   0  0  0  0  0  0  0  0  0  0  0  0
  2  1  1  1
  3  2  1  0
  4  2  1  0
  4 12  1  0
  5  4  2  0
  6  7  1  0
  7  8  2  0
  9 10  1  0
  9  7  1  0
 11 10  1  6
 11 12  1  0
 11 13  1  0
 13 14  2  0
 13 18  1  0
 15 16  1  0
 17 16  1  1
 17 19  1  0
 18 17  1  0
 19 21  2  0
 19 20  1  0
M  END
$$$$
