AQS.pdb
     RDKit          3D

 21 20  0  0  1  0  0  0  0  0999 V2000
   17.3943  -11.3970  -15.0522 C   0  0  0  0  0  0  0  0  0  0  0  0
   17.1344  -10.1324  -15.8468 C   0  0  2  0  0  0  0  0  0  0  0  0
   17.9202  -10.1865  -17.0469 N   0  0  0  0  0  0  0  0  0  0  0  0
   17.4196   -8.9144  -15.0320 C   0  0  0  0  0  0  0  0  0  0  0  0
   16.7763   -8.7213  -13.9852 O   0  0  0  0  0  0  0  0  0  0  0  0
   22.9235   -5.9661  -14.0020 N   0  0  0  0  0  0  0  0  0  0  0  0
   21.9414   -5.0196  -13.6010 C   0  0  0  0  0  0  0  0  0  0  0  0
   22.3481   -4.0035  -13.0106 O   0  0  0  0  0  0  0  0  0  0  0  0
   20.5279   -5.2383  -13.8683 C   0  0  0  0  0  0  0  0  0  0  0  0
   20.1036   -6.5126  -14.4991 C   0  0  0  0  0  0  0  0  0  0  0  0
   18.6968   -6.7278  -14.8095 C   0  0  2  0  0  0  0  0  0  0  0  0
   18.4158   -7.9775  -15.4405 N   0  0  0  0  0  0  0  0  0  0  0  0
   17.9697   -5.6079  -15.4543 C   0  0  0  0  0  0  0  0  0  0  0  0
   18.0681   -5.4731  -16.6947 O   0  0  0  0  0  0  0  0  0  0  0  0
   14.4549   -4.7019  -14.5256 O   0  0  0  0  0  0  0  0  0  0  0  0
   15.1410   -3.4911  -14.5014 C   0  0  0  0  0  0  0  0  0  0  0  0
   16.4254   -3.7079  -15.3082 C   0  0  2  0  0  0  0  0  0  0  0  0
   17.1875   -4.7267  -14.6523 N   0  0  0  0  0  0  0  0  0  0  0  0
   17.1498   -2.4154  -15.2857 C   0  0  0  0  0  0  0  0  0  0  0  0
   16.5730   -1.2668  -15.8034 O   0  0  0  0  0  0  0  0  0  0  0  0
   18.3020   -2.3274  -14.7984 O   0  0  0  0  0  0  0  0  0  0  0  0
  2  1  1  1
  3  2  1  0
  4  2  1  0
  4 12  1  0
  5  4  2  0
  6  7  1  0
  7  8  2  0
  9 10  1  0
  9  7  1  0
 11 10  1  6
 11 12  1  0
 11 13  1  0
 13 14  2  0
 13 18  1  0
 15 16  1  0
 17 16  1  1
 17 19  1  0
 18 17  1  0
 19 21  2  0
 19 20  1  0
M  END
$$$$
