AQS.pdb
     RDKit          3D

 21 20  0  0  1  0  0  0  0  0999 V2000
   15.2797  -12.9848  -14.2716 C   0  0  0  0  0  0  0  0  0  0  0  0
   14.6025  -12.4907  -13.0084 C   0  0  2  0  0  0  0  0  0  0  0  0
   13.2900  -13.0688  -12.9469 N   0  0  0  0  0  0  0  0  0  0  0  0
   14.5722  -10.9989  -12.9601 C   0  0  0  0  0  0  0  0  0  0  0  0
   13.8059  -10.3833  -13.7222 O   0  0  0  0  0  0  0  0  0  0  0  0
   15.1777   -7.4324   -7.8427 N   0  0  0  0  0  0  0  0  0  0  0  0
   14.0300   -7.9306   -8.5181 C   0  0  0  0  0  0  0  0  0  0  0  0
   12.9728   -7.9838   -7.8656 O   0  0  0  0  0  0  0  0  0  0  0  0
   14.0979   -8.3605   -9.9065 C   0  0  0  0  0  0  0  0  0  0  0  0
   15.4072   -8.3352  -10.6045 C   0  0  0  0  0  0  0  0  0  0  0  0
   15.5094   -8.8578  -11.9603 C   0  0  2  0  0  0  0  0  0  0  0  0
   15.4081  -10.2790  -12.0545 N   0  0  0  0  0  0  0  0  0  0  0  0
   16.6032   -8.3249  -12.8076 C   0  0  0  0  0  0  0  0  0  0  0  0
   17.7503   -8.8052  -12.6665 O   0  0  0  0  0  0  0  0  0  0  0  0
   17.2196   -7.8056  -16.7348 O   0  0  0  0  0  0  0  0  0  0  0  0
   16.8025   -6.6889  -16.0162 C   0  0  0  0  0  0  0  0  0  0  0  0
   17.3774   -6.8459  -14.6047 C   0  0  2  0  0  0  0  0  0  0  0  0
   16.3205   -7.2926  -13.7488 N   0  0  0  0  0  0  0  0  0  0  0  0
   17.8473   -5.5006  -14.1985 C   0  0  0  0  0  0  0  0  0  0  0  0
   19.0386   -4.9858  -14.6842 O   0  0  0  0  0  0  0  0  0  0  0  0
   17.1802   -4.7938  -13.4060 O   0  0  0  0  0  0  0  0  0  0  0  0
  2  1  1  6
  3  2  1  0
  4  2  1  0
  4 12  1  0
  5  4  2  0
  6  7  1  0
  7  8  2  0
  9 10  1  0
  9  7  1  0
 11 10  1  1
 11 12  1  0
 11 13  1  0
 13 14  2  0
 13 18  1  0
 15 16  1  0
 17 16  1  6
 17 19  1  0
 18 17  1  0
 19 21  2  0
 19 20  1  0
M  END
$$$$
