CPP.pdb
     RDKit          3D

 21 22  0  0  1  0  0  0  0  0999 V2000
   24.6911  -21.9239  -11.7278 N   0  0  0  0  0  0  0  0  0  0  0  0
   25.6527  -20.9013  -11.3527 C   0  0  1  0  0  0  0  0  0  0  0  0
   24.8836  -19.5958  -11.2649 C   0  0  0  0  0  0  0  0  0  0  0  0
   24.6699  -19.0183  -12.9889 S   0  0  0  0  0  0  0  0  0  0  0  0
   26.3077  -21.2352  -10.0595 C   0  0  0  0  0  0  0  0  0  0  0  0
   25.5830  -21.7027   -9.1285 O   0  0  0  0  0  0  0  0  0  0  0  0
   27.6869  -21.0533   -9.8350 N   0  0  0  0  0  0  0  0  0  0  0  0
   28.6934  -20.6058  -10.8013 C   0  0  0  0  0  0  0  0  0  0  0  0
   29.9542  -21.3121  -10.3576 C   0  0  0  0  0  0  0  0  0  0  0  0
   29.8255  -21.3758   -8.8770 C   0  0  0  0  0  0  0  0  0  0  0  0
   28.3641  -21.2863   -8.5761 C   0  0  1  0  0  0  0  0  0  0  0  0
   28.0883  -20.1682   -7.6401 C   0  0  0  0  0  0  0  0  0  0  0  0
   27.7256  -19.0622   -8.0885 O   0  0  0  0  0  0  0  0  0  0  0  0
   28.2360  -20.3596   -6.2544 N   0  0  0  0  0  0  0  0  0  0  0  0
   28.5808  -21.6662   -5.6638 C   0  0  0  0  0  0  0  0  0  0  0  0
   29.1227  -21.3020   -4.3070 C   0  0  0  0  0  0  0  0  0  0  0  0
   28.1275  -20.2178   -3.8946 C   0  0  0  0  0  0  0  0  0  0  0  0
   28.0984  -19.3896   -5.1742 C   0  0  1  0  0  0  0  0  0  0  0  0
   29.3124  -18.5129   -5.0944 C   0  0  0  0  0  0  0  0  0  0  0  0
   29.2820  -17.4853   -4.1874 O   0  0  0  0  0  0  0  0  0  0  0  0
   30.3280  -18.6782   -5.8062 O   0  0  0  0  0  0  0  0  0  0  0  0
  2  1  1  1
  3  2  1  0
  4  3  1  0
  5  2  1  0
  6  5  2  0
  7  8  1  0
  7  5  1  0
  9 10  1  0
  9  8  1  0
 10 11  1  0
 11  7  1  0
 11 12  1  1
 12 13  2  0
 14 12  1  0
 14 15  1  0
 16 15  1  0
 17 16  1  0
 18 17  1  0
 18 14  1  0
 19 20  1  0
 18 19  1  1
 21 19  2  0
M  END
$$$$
