CPP.pdb
     RDKit          3D

 21 22  0  0  1  0  0  0  0  0999 V2000
   21.3679  -20.8826  -11.4399 N   0  0  0  0  0  0  0  0  0  0  0  0
   22.2921  -21.3416  -12.4628 C   0  0  1  0  0  0  0  0  0  0  0  0
   21.4721  -21.5553  -13.7220 C   0  0  0  0  0  0  0  0  0  0  0  0
   22.6207  -22.2639  -14.9588 S   0  0  0  0  0  0  0  0  0  0  0  0
   23.3785  -20.3494  -12.6826 C   0  0  0  0  0  0  0  0  0  0  0  0
   23.0543  -19.1280  -12.8000 O   0  0  0  0  0  0  0  0  0  0  0  0
   24.7374  -20.7133  -12.7635 N   0  0  0  0  0  0  0  0  0  0  0  0
   25.3225  -22.0298  -12.4959 C   0  0  0  0  0  0  0  0  0  0  0  0
   26.6992  -21.7073  -11.9609 C   0  0  0  0  0  0  0  0  0  0  0  0
   27.0901  -20.4769  -12.6997 C   0  0  0  0  0  0  0  0  0  0  0  0
   25.8180  -19.8226  -13.1332 C   0  0  1  0  0  0  0  0  0  0  0  0
   25.8131  -19.6053  -14.6013 C   0  0  0  0  0  0  0  0  0  0  0  0
   25.3871  -20.5015  -15.3571 O   0  0  0  0  0  0  0  0  0  0  0  0
   26.2871  -18.3926  -15.1334 N   0  0  0  0  0  0  0  0  0  0  0  0
   26.8151  -17.3053  -14.2884 C   0  0  0  0  0  0  0  0  0  0  0  0
   27.6418  -16.4903  -15.2475 C   0  0  0  0  0  0  0  0  0  0  0  0
   26.7245  -16.4893  -16.4701 C   0  0  0  0  0  0  0  0  0  0  0  0
   26.3633  -17.9693  -16.5268 C   0  0  1  0  0  0  0  0  0  0  0  0
   27.5241  -18.6240  -17.2144 C   0  0  0  0  0  0  0  0  0  0  0  0
   27.5995  -18.4898  -18.5767 O   0  0  0  0  0  0  0  0  0  0  0  0
   28.4058  -19.2726  -16.6082 O   0  0  0  0  0  0  0  0  0  0  0  0
  2  1  1  1
  3  2  1  0
  4  3  1  0
  5  2  1  0
  6  5  2  0
  7  8  1  0
  7  5  1  0
  9 10  1  0
  9  8  1  0
 10 11  1  0
 11  7  1  0
 11 12  1  6
 12 13  2  0
 14 12  1  0
 14 15  1  0
 16 15  1  0
 17 16  1  0
 18 17  1  0
 18 14  1  0
 19 20  1  0
 18 19  1  6
 21 19  2  0
M  END
$$$$
