CPP.pdb
     RDKit          3D

 21 22  0  0  1  0  0  0  0  0999 V2000
   23.7737  -20.6481  -11.0386 N   0  0  0  0  0  0  0  0  0  0  0  0
   24.9228  -20.5561  -11.9231 C   0  0  1  0  0  0  0  0  0  0  0  0
   25.2363  -21.9712  -12.3735 C   0  0  0  0  0  0  0  0  0  0  0  0
   27.0472  -22.0286  -12.6356 S   0  0  0  0  0  0  0  0  0  0  0  0
   24.6337  -19.6678  -13.0808 C   0  0  0  0  0  0  0  0  0  0  0  0
   23.4201  -19.4932  -13.4085 O   0  0  0  0  0  0  0  0  0  0  0  0
   25.6469  -19.0215  -13.8166 N   0  0  0  0  0  0  0  0  0  0  0  0
   27.0900  -19.0599  -13.5655 C   0  0  0  0  0  0  0  0  0  0  0  0
   27.5714  -17.7071  -14.0385 C   0  0  0  0  0  0  0  0  0  0  0  0
   26.6784  -17.3913  -15.1854 C   0  0  0  0  0  0  0  0  0  0  0  0
   25.4282  -18.1838  -14.9777 C   0  0  1  0  0  0  0  0  0  0  0  0
   25.1395  -19.0292  -16.1628 C   0  0  0  0  0  0  0  0  0  0  0  0
   25.6785  -20.1490  -16.2691 O   0  0  0  0  0  0  0  0  0  0  0  0
   24.2610  -18.5658  -17.1589 N   0  0  0  0  0  0  0  0  0  0  0  0
   23.5998  -17.2496  -17.0871 C   0  0  0  0  0  0  0  0  0  0  0  0
   23.2119  -16.9773  -18.5164 C   0  0  0  0  0  0  0  0  0  0  0  0
   22.7091  -18.3590  -18.9335 C   0  0  0  0  0  0  0  0  0  0  0  0
   23.8412  -19.2238  -18.3907 C   0  0  1  0  0  0  0  0  0  0  0  0
   24.9214  -19.1412  -19.4276 C   0  0  0  0  0  0  0  0  0  0  0  0
   25.9723  -18.2996  -19.1689 O   0  0  0  0  0  0  0  0  0  0  0  0
   24.9020  -19.7947  -20.4944 O   0  0  0  0  0  0  0  0  0  0  0  0
  2  1  1  1
  3  2  1  0
  4  3  1  0
  5  2  1  0
  6  5  2  0
  7  8  1  0
  7  5  1  0
  9 10  1  0
  9  8  1  0
 10 11  1  0
 11  7  1  0
 11 12  1  6
 12 13  2  0
 14 12  1  0
 14 15  1  0
 16 15  1  0
 17 16  1  0
 18 17  1  0
 18 14  1  0
 19 20  1  0
 18 19  1  6
 21 19  2  0
M  END
$$$$
