CPP.pdb
     RDKit          3D

 21 22  0  0  1  0  0  0  0  0999 V2000
   21.9061  -17.3970  -18.0514 N   0  0  0  0  0  0  0  0  0  0  0  0
   22.3523  -17.0603  -16.7102 C   0  0  1  0  0  0  0  0  0  0  0  0
   21.1432  -17.2023  -15.8038 C   0  0  0  0  0  0  0  0  0  0  0  0
   20.8072  -15.5283  -15.1435 S   0  0  0  0  0  0  0  0  0  0  0  0
   23.4632  -17.9509  -16.2795 C   0  0  0  0  0  0  0  0  0  0  0  0
   23.4205  -19.1691  -16.6328 O   0  0  0  0  0  0  0  0  0  0  0  0
   24.5475  -17.4952  -15.5034 N   0  0  0  0  0  0  0  0  0  0  0  0
   24.8399  -16.1148  -15.1084 C   0  0  0  0  0  0  0  0  0  0  0  0
   26.3495  -16.0752  -15.0372 C   0  0  0  0  0  0  0  0  0  0  0  0
   26.7207  -17.4381  -14.5710 C   0  0  0  0  0  0  0  0  0  0  0  0
   25.5881  -18.3370  -14.9500 C   0  0  1  0  0  0  0  0  0  0  0  0
   25.0727  -19.0616  -13.7618 C   0  0  0  0  0  0  0  0  0  0  0  0
   24.1865  -18.5395  -13.0561 O   0  0  0  0  0  0  0  0  0  0  0  0
   25.5837  -20.3313  -13.4372 N   0  0  0  0  0  0  0  0  0  0  0  0
   26.6636  -20.9752  -14.2079 C   0  0  0  0  0  0  0  0  0  0  0  0
   27.2124  -21.9981  -13.2488 C   0  0  0  0  0  0  0  0  0  0  0  0
   25.9144  -22.5381  -12.6491 C   0  0  0  0  0  0  0  0  0  0  0  0
   25.1983  -21.2255  -12.3517 C   0  0  1  0  0  0  0  0  0  0  0  0
   25.7772  -20.7560  -11.0505 C   0  0  0  0  0  0  0  0  0  0  0  0
   26.8229  -19.8717  -11.1152 O   0  0  0  0  0  0  0  0  0  0  0  0
   25.3536  -21.1306   -9.9343 O   0  0  0  0  0  0  0  0  0  0  0  0
  2  1  1  6
  3  2  1  0
  4  3  1  0
  5  2  1  0
  6  5  2  0
  7  8  1  0
  7  5  1  0
  9 10  1  0
  9  8  1  0
 10 11  1  0
 11  7  1  0
 11 12  1  1
 12 13  2  0
 14 12  1  0
 14 15  1  0
 16 15  1  0
 17 16  1  0
 18 17  1  0
 18 14  1  0
 19 20  1  0
 18 19  1  1
 21 19  2  0
M  END
$$$$
