CPP.pdb
     RDKit          3D

 21 22  0  0  1  0  0  0  0  0999 V2000
   24.5355  -23.3909  -15.4192 N   0  0  0  0  0  0  0  0  0  0  0  0
   24.2557  -22.3543  -14.4403 C   0  0  1  0  0  0  0  0  0  0  0  0
   22.9526  -22.7389  -13.7637 C   0  0  0  0  0  0  0  0  0  0  0  0
   22.2386  -21.1811  -13.1196 S   0  0  0  0  0  0  0  0  0  0  0  0
   25.3657  -22.2371  -13.4569 C   0  0  0  0  0  0  0  0  0  0  0  0
   25.6559  -23.2589  -12.7625 O   0  0  0  0  0  0  0  0  0  0  0  0
   26.0970  -21.0469  -13.2722 N   0  0  0  0  0  0  0  0  0  0  0  0
   25.9945  -19.8105  -14.0518 C   0  0  0  0  0  0  0  0  0  0  0  0
   27.3942  -19.2410  -14.0050 C   0  0  0  0  0  0  0  0  0  0  0  0
   27.8962  -19.6375  -12.6620 C   0  0  0  0  0  0  0  0  0  0  0  0
   27.1045  -20.8376  -12.2529 C   0  0  1  0  0  0  0  0  0  0  0  0
   26.4536  -20.6139  -10.9381 C   0  0  0  0  0  0  0  0  0  0  0  0
   25.2502  -20.2889  -10.8918 O   0  0  0  0  0  0  0  0  0  0  0  0
   27.1940  -20.7694   -9.7523 N   0  0  0  0  0  0  0  0  0  0  0  0
   28.6214  -21.1399   -9.7482 C   0  0  0  0  0  0  0  0  0  0  0  0
   29.0923  -20.6935   -8.3894 C   0  0  0  0  0  0  0  0  0  0  0  0
   27.9116  -21.1405   -7.5279 C   0  0  0  0  0  0  0  0  0  0  0  0
   26.7576  -20.6086   -8.3702 C   0  0  1  0  0  0  0  0  0  0  0  0
   26.6575  -19.1553   -8.0142 C   0  0  0  0  0  0  0  0  0  0  0  0
   25.9942  -18.8402   -6.8564 O   0  0  0  0  0  0  0  0  0  0  0  0
   27.1440  -18.2404   -8.7155 O   0  0  0  0  0  0  0  0  0  0  0  0
  2  1  1  6
  3  2  1  0
  4  3  1  0
  5  2  1  0
  6  5  2  0
  7  8  1  0
  7  5  1  0
  9 10  1  0
  9  8  1  0
 10 11  1  0
 11  7  1  0
 11 12  1  1
 12 13  2  0
 14 12  1  0
 14 15  1  0
 16 15  1  0
 17 16  1  0
 18 17  1  0
 18 14  1  0
 19 20  1  0
 18 19  1  1
 21 19  2  0
M  END
$$$$
