CPP.pdb
     RDKit          3D

 21 22  0  0  1  0  0  0  0  0999 V2000
   18.9774  -13.1774  -16.4828 N   0  0  0  0  0  0  0  0  0  0  0  0
   20.1063  -12.4063  -16.9748 C   0  0  1  0  0  0  0  0  0  0  0  0
   19.6681  -11.7894  -18.2905 C   0  0  0  0  0  0  0  0  0  0  0  0
   19.7775  -13.1259  -19.5366 S   0  0  0  0  0  0  0  0  0  0  0  0
   20.5081  -11.3643  -15.9921 C   0  0  0  0  0  0  0  0  0  0  0  0
   19.5965  -10.8151  -15.3008 O   0  0  0  0  0  0  0  0  0  0  0  0
   21.8481  -10.9711  -15.8040 N   0  0  0  0  0  0  0  0  0  0  0  0
   23.0434  -11.5740  -16.3998 C   0  0  0  0  0  0  0  0  0  0  0  0
   24.1108  -11.3646  -15.3498 C   0  0  0  0  0  0  0  0  0  0  0  0
   23.7484  -10.0633  -14.7269 C   0  0  0  0  0  0  0  0  0  0  0  0
   22.2848   -9.8746  -14.9646 C   0  0  1  0  0  0  0  0  0  0  0  0
   22.0261   -8.5823  -15.6470 C   0  0  0  0  0  0  0  0  0  0  0  0
   21.9672   -8.5422  -16.8923 O   0  0  0  0  0  0  0  0  0  0  0  0
   21.8482   -7.4109  -14.8889 N   0  0  0  0  0  0  0  0  0  0  0  0
   21.7928   -7.4176  -13.4152 C   0  0  0  0  0  0  0  0  0  0  0  0
   22.1115   -5.9921  -13.0492 C   0  0  0  0  0  0  0  0  0  0  0  0
   21.2956   -5.2473  -14.1054 C   0  0  0  0  0  0  0  0  0  0  0  0
   21.6953   -6.0352  -15.3478 C   0  0  1  0  0  0  0  0  0  0  0  0
   23.0206   -5.4650  -15.7568 C   0  0  0  0  0  0  0  0  0  0  0  0
   23.0016   -4.3737  -16.5864 O   0  0  0  0  0  0  0  0  0  0  0  0
   24.1172   -5.9349  -15.3797 O   0  0  0  0  0  0  0  0  0  0  0  0
  2  1  1  1
  3  2  1  0
  4  3  1  0
  5  2  1  0
  6  5  2  0
  7  8  1  0
  7  5  1  0
  9 10  1  0
  9  8  1  0
 10 11  1  0
 11  7  1  0
 11 12  1  6
 12 13  2  0
 14 12  1  0
 14 15  1  0
 16 15  1  0
 17 16  1  0
 18 17  1  0
 18 14  1  0
 19 20  1  0
 18 19  1  1
 21 19  2  0
M  END
$$$$
