CPP.pdb
     RDKit          3D

 21 22  0  0  1  0  0  0  0  0999 V2000
   25.4230  -22.6367  -12.3251 N   0  0  0  0  0  0  0  0  0  0  0  0
   25.7023  -21.3768  -11.6574 C   0  0  1  0  0  0  0  0  0  0  0  0
   24.3581  -20.7382  -11.3592 C   0  0  0  0  0  0  0  0  0  0  0  0
   24.7272  -19.1395  -10.5471 S   0  0  0  0  0  0  0  0  0  0  0  0
   26.4884  -21.5963  -10.4137 C   0  0  0  0  0  0  0  0  0  0  0  0
   25.9744  -22.3164   -9.5039 O   0  0  0  0  0  0  0  0  0  0  0  0
   27.7676  -21.0403  -10.2133 N   0  0  0  0  0  0  0  0  0  0  0  0
   28.5581  -20.2611  -11.1699 C   0  0  0  0  0  0  0  0  0  0  0  0
   29.9874  -20.6020  -10.8143 C   0  0  0  0  0  0  0  0  0  0  0  0
   29.9522  -20.7949   -9.3398 C   0  0  0  0  0  0  0  0  0  0  0  0
   28.5417  -21.1491   -8.9940 C   0  0  1  0  0  0  0  0  0  0  0  0
   28.0032  -20.2200   -7.9696 C   0  0  0  0  0  0  0  0  0  0  0  0
   27.2614  -19.2795   -8.3175 O   0  0  0  0  0  0  0  0  0  0  0  0
   28.3301  -20.4034   -6.6138 N   0  0  0  0  0  0  0  0  0  0  0  0
   29.1828  -21.5109   -6.1437 C   0  0  0  0  0  0  0  0  0  0  0  0
   29.6667  -21.0310   -4.8010 C   0  0  0  0  0  0  0  0  0  0  0  0
   28.3808  -20.4172   -4.2479 C   0  0  0  0  0  0  0  0  0  0  0  0
   27.9375  -19.6042   -5.4590 C   0  0  1  0  0  0  0  0  0  0  0  0
   28.7436  -18.3415   -5.3924 C   0  0  0  0  0  0  0  0  0  0  0  0
   28.3484  -17.3956   -4.4821 O   0  0  0  0  0  0  0  0  0  0  0  0
   29.7392  -18.1222   -6.1179 O   0  0  0  0  0  0  0  0  0  0  0  0
  2  1  1  1
  3  2  1  0
  4  3  1  0
  5  2  1  0
  6  5  2  0
  7  8  1  0
  7  5  1  0
  9 10  1  0
  9  8  1  0
 10 11  1  0
 11  7  1  0
 11 12  1  1
 12 13  2  0
 14 12  1  0
 14 15  1  0
 16 15  1  0
 17 16  1  0
 18 17  1  0
 18 14  1  0
 19 20  1  0
 18 19  1  6
 21 19  2  0
M  END
$$$$
