MMV.pdb
     RDKit          3D

 24 23  0  0  1  0  0  0  0  0999 V2000
    6.2353  -21.2215   28.5424 C   0  0  0  0  0  0  0  0  0  0  0  0
    6.9356  -19.9854   27.4386 S   0  0  0  0  0  0  0  0  0  0  0  0
    7.3141  -20.7031   25.8002 C   0  0  0  0  0  0  0  0  0  0  0  0
    7.9161  -19.6170   24.9656 C   0  0  0  0  0  0  0  0  0  0  0  0
    6.9242  -18.9431   24.0613 C   0  0  2  0  0  0  0  0  0  0  0  0
    6.5933  -19.7811   22.9496 N   0  0  0  0  0  0  0  0  0  0  0  0
    7.3963  -17.5931   23.6252 C   0  0  0  0  0  0  0  0  0  0  0  0
    8.3027  -17.5266   22.7625 O   0  0  0  0  0  0  0  0  0  0  0  0
    5.1253  -12.0798   26.7082 C   0  0  0  0  0  0  0  0  0  0  0  0
    6.3928  -11.4327   25.6125 S   0  0  0  0  0  0  0  0  0  0  0  0
    7.4565  -12.8146   25.0659 C   0  0  0  0  0  0  0  0  0  0  0  0
    6.6374  -14.0692   24.9812 C   0  0  0  0  0  0  0  0  0  0  0  0
    7.5359  -15.2027   24.5146 C   0  0  2  0  0  0  0  0  0  0  0  0
    6.8565  -16.4024   24.1514 N   0  0  0  0  0  0  0  0  0  0  0  0
    8.7715  -15.3578   25.2668 C   0  0  0  0  0  0  0  0  0  0  0  0
    9.8389  -14.9199   24.7397 O   0  0  0  0  0  0  0  0  0  0  0  0
    9.3663  -13.5149   28.1040 C   0  0  0  0  0  0  0  0  0  0  0  0
    9.7889  -14.8941   28.5620 C   0  0  2  0  0  0  0  0  0  0  0  0
   11.0078  -14.7206   29.4336 C   0  0  0  0  0  0  0  0  0  0  0  0
   10.0829  -15.7358   27.3426 C   0  0  2  0  0  0  0  0  0  0  0  0
    8.8874  -15.9600   26.5474 N   0  0  0  0  0  0  0  0  0  0  0  0
   10.6612  -17.0295   27.7874 C   0  0  0  0  0  0  0  0  0  0  0  0
   11.9548  -17.1334   28.2267 O   0  0  0  0  0  0  0  0  0  0  0  0
    9.9386  -18.0607   27.7588 O   0  0  0  0  0  0  0  0  0  0  0  0
  1  2  1  0
  2  3  1  0
  4  5  1  0
  4  3  1  0
  5  6  1  6
  7  5  1  0
  8  7  2  0
  9 10  1  0
 10 11  1  0
 13 12  1  1
 12 11  1  0
 13 14  1  0
 14  7  1  0
 15 21  1  0
 15 13  1  0
 16 15  2  0
 18 17  1  6
 18 20  1  0
 18 19  1  0
 20 22  1  0
 20 21  1  1
 22 23  1  0
 24 22  2  0
M  END
$$$$
