MMV.pdb
     RDKit          3D

 24 23  0  0  1  0  0  0  0  0999 V2000
    6.3507  -20.3106   21.7995 C   0  0  0  0  0  0  0  0  0  0  0  0
    5.8346  -19.8986   20.1259 S   0  0  0  0  0  0  0  0  0  0  0  0
    6.4456  -18.2468   19.6353 C   0  0  0  0  0  0  0  0  0  0  0  0
    7.1850  -17.6788   20.8055 C   0  0  0  0  0  0  0  0  0  0  0  0
    7.6967  -16.2871   20.5668 C   0  0  2  0  0  0  0  0  0  0  0  0
    8.6035  -16.2578   19.4602 N   0  0  0  0  0  0  0  0  0  0  0  0
    8.2988  -15.6962   21.8013 C   0  0  0  0  0  0  0  0  0  0  0  0
    9.5387  -15.7815   21.9614 O   0  0  0  0  0  0  0  0  0  0  0  0
    6.9400  -10.6471   26.5810 C   0  0  0  0  0  0  0  0  0  0  0  0
    6.3835  -12.2899   27.0472 S   0  0  0  0  0  0  0  0  0  0  0  0
    7.4440  -13.5256   26.2176 C   0  0  0  0  0  0  0  0  0  0  0  0
    6.9238  -13.7777   24.8327 C   0  0  0  0  0  0  0  0  0  0  0  0
    7.8649  -14.7429   24.1309 C   0  0  2  0  0  0  0  0  0  0  0  0
    7.5195  -15.0513   22.7825 N   0  0  0  0  0  0  0  0  0  0  0  0
    8.3352  -15.8491   24.9506 C   0  0  0  0  0  0  0  0  0  0  0  0
    7.4740  -16.6880   25.3551 O   0  0  0  0  0  0  0  0  0  0  0  0
   12.4216  -16.8852   25.5607 C   0  0  0  0  0  0  0  0  0  0  0  0
   11.3109  -17.9030   25.4150 C   0  0  2  0  0  0  0  0  0  0  0  0
   11.1705  -18.2022   23.9432 C   0  0  0  0  0  0  0  0  0  0  0  0
   10.0447  -17.3182   25.9949 C   0  0  2  0  0  0  0  0  0  0  0  0
    9.6823  -16.0730   25.3393 N   0  0  0  0  0  0  0  0  0  0  0  0
   10.2462  -17.0998   27.4501 C   0  0  0  0  0  0  0  0  0  0  0  0
   10.4109  -18.1418   28.3245 O   0  0  0  0  0  0  0  0  0  0  0  0
   10.2656  -15.9203   27.8913 O   0  0  0  0  0  0  0  0  0  0  0  0
  1  2  1  0
  2  3  1  0
  4  5  1  0
  4  3  1  0
  5  6  1  6
  7  5  1  0
  8  7  2  0
  9 10  1  0
 10 11  1  0
 13 12  1  1
 12 11  1  0
 13 14  1  0
 14  7  1  0
 15 21  1  0
 15 13  1  0
 16 15  2  0
 18 17  1  6
 18 20  1  0
 18 19  1  0
 20 22  1  0
 20 21  1  6
 22 23  1  0
 24 22  2  0
M  END
$$$$
