MMV.pdb
     RDKit          3D

 24 23  0  0  1  0  0  0  0  0999 V2000
    7.8107  -12.1586   18.9246 C   0  0  0  0  0  0  0  0  0  0  0  0
    7.7915  -13.6170   17.8712 S   0  0  0  0  0  0  0  0  0  0  0  0
    8.2351  -15.1183   18.8153 C   0  0  0  0  0  0  0  0  0  0  0  0
    8.7558  -14.6717   20.1450 C   0  0  0  0  0  0  0  0  0  0  0  0
    9.0510  -15.8090   21.0804 C   0  0  2  0  0  0  0  0  0  0  0  0
    8.0268  -16.8059   21.0136 N   0  0  0  0  0  0  0  0  0  0  0  0
    9.2808  -15.3337   22.4793 C   0  0  0  0  0  0  0  0  0  0  0  0
   10.3660  -14.7672   22.7476 O   0  0  0  0  0  0  0  0  0  0  0  0
    5.1822  -12.0097   25.6536 C   0  0  0  0  0  0  0  0  0  0  0  0
    6.7173  -12.0984   26.5817 S   0  0  0  0  0  0  0  0  0  0  0  0
    7.2377  -13.8470   26.6883 C   0  0  0  0  0  0  0  0  0  0  0  0
    7.0094  -14.5154   25.3643 C   0  0  0  0  0  0  0  0  0  0  0  0
    8.3462  -15.0070   24.8339 C   0  0  2  0  0  0  0  0  0  0  0  0
    8.3210  -15.5025   23.4973 N   0  0  0  0  0  0  0  0  0  0  0  0
    9.1498  -15.7543   25.7891 C   0  0  0  0  0  0  0  0  0  0  0  0
    9.2670  -17.0042   25.6073 O   0  0  0  0  0  0  0  0  0  0  0  0
   10.1799  -14.8942   29.8330 C   0  0  0  0  0  0  0  0  0  0  0  0
   11.2863  -15.2802   28.8751 C   0  0  2  0  0  0  0  0  0  0  0  0
   11.9439  -14.0029   28.4152 C   0  0  0  0  0  0  0  0  0  0  0  0
   10.6791  -16.0479   27.7246 C   0  0  2  0  0  0  0  0  0  0  0  0
    9.8185  -15.2031   26.9138 N   0  0  0  0  0  0  0  0  0  0  0  0
    9.9130  -17.1963   28.2725 C   0  0  0  0  0  0  0  0  0  0  0  0
   10.5341  -18.3073   28.7797 O   0  0  0  0  0  0  0  0  0  0  0  0
    8.6546  -17.1450   28.2694 O   0  0  0  0  0  0  0  0  0  0  0  0
  1  2  1  0
  2  3  1  0
  4  5  1  0
  4  3  1  0
  5  6  1  1
  7  5  1  0
  8  7  2  0
  9 10  1  0
 10 11  1  0
 13 12  1  1
 12 11  1  0
 13 14  1  0
 14  7  1  0
 15 21  1  0
 15 13  1  0
 16 15  2  0
 18 17  1  1
 18 20  1  0
 18 19  1  0
 20 22  1  0
 20 21  1  1
 22 23  1  0
 24 22  2  0
M  END
$$$$
