MMV.pdb
     RDKit          3D

 24 23  0  0  1  0  0  0  0  0999 V2000
    7.2185  -12.0959   18.8044 C   0  0  0  0  0  0  0  0  0  0  0  0
    7.8745  -13.1814   17.5283 S   0  0  0  0  0  0  0  0  0  0  0  0
    8.2210  -14.8482   18.1946 C   0  0  0  0  0  0  0  0  0  0  0  0
    7.6770  -14.8940   19.5876 C   0  0  0  0  0  0  0  0  0  0  0  0
    8.5667  -15.6282   20.5495 C   0  0  2  0  0  0  0  0  0  0  0  0
    8.7967  -16.9708   20.1113 N   0  0  0  0  0  0  0  0  0  0  0  0
    8.0375  -15.5770   21.9470 C   0  0  0  0  0  0  0  0  0  0  0  0
    7.6890  -14.4676   22.4140 O   0  0  0  0  0  0  0  0  0  0  0  0
    6.5963  -20.8943   25.6265 C   0  0  0  0  0  0  0  0  0  0  0  0
    5.6167  -20.4602   24.1851 S   0  0  0  0  0  0  0  0  0  0  0  0
    6.1011  -18.7881   23.6290 C   0  0  0  0  0  0  0  0  0  0  0  0
    7.1320  -18.2313   24.5667 C   0  0  0  0  0  0  0  0  0  0  0  0
    7.4977  -16.8298   24.1065 C   0  0  2  0  0  0  0  0  0  0  0  0
    7.9200  -16.7302   22.7484 N   0  0  0  0  0  0  0  0  0  0  0  0
    8.2370  -16.0370   25.0768 C   0  0  0  0  0  0  0  0  0  0  0  0
    9.5037  -16.0705   25.0197 O   0  0  0  0  0  0  0  0  0  0  0  0
    6.5766  -13.2044   27.8040 C   0  0  0  0  0  0  0  0  0  0  0  0
    7.9587  -13.0620   27.2038 C   0  0  2  0  0  0  0  0  0  0  0  0
    7.8098  -12.2807   25.9220 C   0  0  0  0  0  0  0  0  0  0  0  0
    8.5210  -14.4426   26.9606 C   0  0  2  0  0  0  0  0  0  0  0  0
    7.6608  -15.2239   26.0880 N   0  0  0  0  0  0  0  0  0  0  0  0
    8.6892  -15.1236   28.2698 C   0  0  0  0  0  0  0  0  0  0  0  0
    9.6141  -14.7072   29.1909 O   0  0  0  0  0  0  0  0  0  0  0  0
    7.9585  -16.1135   28.5389 O   0  0  0  0  0  0  0  0  0  0  0  0
  1  2  1  0
  2  3  1  0
  4  5  1  0
  4  3  1  0
  5  6  1  6
  7  5  1  0
  8  7  2  0
  9 10  1  0
 10 11  1  0
 13 12  1  1
 12 11  1  0
 13 14  1  0
 14  7  1  0
 15 21  1  0
 15 13  1  0
 16 15  2  0
 18 17  1  6
 18 20  1  0
 18 19  1  0
 20 22  1  0
 20 21  1  6
 22 23  1  0
 24 22  2  0
M  END
$$$$
