MMV.pdb
     RDKit          3D

 24 23  0  0  1  0  0  0  0  0999 V2000
    8.6065  -11.6115   18.8989 C   0  0  0  0  0  0  0  0  0  0  0  0
    7.9641  -13.0616   18.0493 S   0  0  0  0  0  0  0  0  0  0  0  0
    8.5203  -14.6021   18.8616 C   0  0  0  0  0  0  0  0  0  0  0  0
    8.5875  -14.3323   20.3317 C   0  0  0  0  0  0  0  0  0  0  0  0
    9.0499  -15.5155   21.1328 C   0  0  2  0  0  0  0  0  0  0  0  0
    8.2066  -16.6489   20.9053 N   0  0  0  0  0  0  0  0  0  0  0  0
    9.1717  -15.1898   22.5870 C   0  0  0  0  0  0  0  0  0  0  0  0
   10.0270  -14.3451   22.9408 O   0  0  0  0  0  0  0  0  0  0  0  0
    5.7584  -11.4368   26.3280 C   0  0  0  0  0  0  0  0  0  0  0  0
    6.5399  -13.0286   26.6132 S   0  0  0  0  0  0  0  0  0  0  0  0
    6.1477  -14.1338   25.2116 C   0  0  0  0  0  0  0  0  0  0  0  0
    6.7710  -15.4781   25.4488 C   0  0  0  0  0  0  0  0  0  0  0  0
    8.2012  -15.4454   24.9358 C   0  0  2  0  0  0  0  0  0  0  0  0
    8.3598  -15.7999   23.5640 N   0  0  0  0  0  0  0  0  0  0  0  0
    9.1983  -15.9629   25.8603 C   0  0  0  0  0  0  0  0  0  0  0  0
    9.9039  -16.9439   25.4746 O   0  0  0  0  0  0  0  0  0  0  0  0
   10.6417  -13.8329   29.1255 C   0  0  0  0  0  0  0  0  0  0  0  0
   10.6629  -15.3371   29.2919 C   0  0  2  0  0  0  0  0  0  0  0  0
   11.9470  -15.6893   30.0007 C   0  0  0  0  0  0  0  0  0  0  0  0
   10.5811  -15.9727   27.9241 C   0  0  2  0  0  0  0  0  0  0  0  0
    9.4523  -15.4623   27.1644 N   0  0  0  0  0  0  0  0  0  0  0  0
   10.4723  -17.4445   28.0908 C   0  0  0  0  0  0  0  0  0  0  0  0
   11.5724  -18.2609   28.0667 O   0  0  0  0  0  0  0  0  0  0  0  0
    9.3333  -17.9551   28.2589 O   0  0  0  0  0  0  0  0  0  0  0  0
  1  2  1  0
  2  3  1  0
  4  5  1  0
  4  3  1  0
  5  6  1  1
  7  5  1  0
  8  7  2  0
  9 10  1  0
 10 11  1  0
 13 12  1  1
 12 11  1  0
 13 14  1  0
 14  7  1  0
 15 21  1  0
 15 13  1  0
 16 15  2  0
 18 17  1  6
 18 20  1  0
 18 19  1  0
 20 22  1  0
 20 21  1  1
 22 23  1  0
 24 22  2  0
M  END
$$$$
