MMV.pdb
     RDKit          3D

 24 23  0  0  1  0  0  0  0  0999 V2000
    3.5843  -19.1638   22.0551 C   0  0  0  0  0  0  0  0  0  0  0  0
    4.4551  -19.6343   20.5527 S   0  0  0  0  0  0  0  0  0  0  0  0
    5.4474  -18.2433   19.9025 C   0  0  0  0  0  0  0  0  0  0  0  0
    6.4897  -17.9216   20.9265 C   0  0  0  0  0  0  0  0  0  0  0  0
    7.2590  -16.6690   20.6187 C   0  0  2  0  0  0  0  0  0  0  0  0
    8.1053  -16.8548   19.4800 N   0  0  0  0  0  0  0  0  0  0  0  0
    8.0192  -16.1763   21.8083 C   0  0  0  0  0  0  0  0  0  0  0  0
    9.2331  -16.4714   21.9062 O   0  0  0  0  0  0  0  0  0  0  0  0
    7.5085  -11.5251   27.4854 C   0  0  0  0  0  0  0  0  0  0  0  0
    6.1954  -12.5852   26.8707 S   0  0  0  0  0  0  0  0  0  0  0  0
    6.9473  -14.0518   26.0812 C   0  0  0  0  0  0  0  0  0  0  0  0
    7.2870  -13.7298   24.6554 C   0  0  0  0  0  0  0  0  0  0  0  0
    7.9805  -14.9339   24.0397 C   0  0  2  0  0  0  0  0  0  0  0  0
    7.4159  -15.3960   22.8148 N   0  0  0  0  0  0  0  0  0  0  0  0
    8.3989  -15.9545   24.9883 C   0  0  0  0  0  0  0  0  0  0  0  0
    7.4990  -16.6939   25.4907 O   0  0  0  0  0  0  0  0  0  0  0  0
   12.4346  -17.1864   25.5633 C   0  0  0  0  0  0  0  0  0  0  0  0
   11.2466  -18.1228   25.5146 C   0  0  2  0  0  0  0  0  0  0  0  0
   11.0156  -18.4752   24.0662 C   0  0  0  0  0  0  0  0  0  0  0  0
   10.0554  -17.4191   26.1207 C   0  0  2  0  0  0  0  0  0  0  0  0
    9.7350  -16.1968   25.4032 N   0  0  0  0  0  0  0  0  0  0  0  0
   10.3540  -17.1223   27.5451 C   0  0  0  0  0  0  0  0  0  0  0  0
   10.5048  -18.1152   28.4771 O   0  0  0  0  0  0  0  0  0  0  0  0
   10.4716  -15.9210   27.9045 O   0  0  0  0  0  0  0  0  0  0  0  0
  1  2  1  0
  2  3  1  0
  4  5  1  0
  4  3  1  0
  5  6  1  6
  7  5  1  0
  8  7  2  0
  9 10  1  0
 10 11  1  0
 13 12  1  1
 12 11  1  0
 13 14  1  0
 14  7  1  0
 15 21  1  0
 15 13  1  0
 16 15  2  0
 18 17  1  6
 18 20  1  0
 18 19  1  0
 20 22  1  0
 20 21  1  6
 22 23  1  0
 24 22  2  0
M  END
$$$$
