MMV.pdb
     RDKit          3D

 24 23  0  0  1  0  0  0  0  0999 V2000
    8.4264  -12.8247   20.0733 C   0  0  0  0  0  0  0  0  0  0  0  0
    7.9758  -13.6828   18.5575 S   0  0  0  0  0  0  0  0  0  0  0  0
    7.4626  -15.4035   18.9015 C   0  0  0  0  0  0  0  0  0  0  0  0
    6.9825  -15.4514   20.3177 C   0  0  0  0  0  0  0  0  0  0  0  0
    6.5567  -16.8236   20.7551 C   0  0  2  0  0  0  0  0  0  0  0  0
    5.4302  -17.2758   19.9975 N   0  0  0  0  0  0  0  0  0  0  0  0
    6.3038  -16.8850   22.2275 C   0  0  0  0  0  0  0  0  0  0  0  0
    5.1655  -16.5777   22.6518 O   0  0  0  0  0  0  0  0  0  0  0  0
    7.4053  -20.9132   27.5483 C   0  0  0  0  0  0  0  0  0  0  0  0
    8.4426  -19.4582   27.7289 S   0  0  0  0  0  0  0  0  0  0  0  0
    7.6865  -18.0798   26.7971 C   0  0  0  0  0  0  0  0  0  0  0  0
    7.7625  -18.3724   25.3272 C   0  0  0  0  0  0  0  0  0  0  0  0
    7.3022  -17.1411   24.5645 C   0  0  2  0  0  0  0  0  0  0  0  0
    7.2997  -17.2750   23.1451 N   0  0  0  0  0  0  0  0  0  0  0  0
    7.7788  -15.8738   25.0970 C   0  0  0  0  0  0  0  0  0  0  0  0
    8.8585  -15.4063   24.6229 O   0  0  0  0  0  0  0  0  0  0  0  0
    5.5097  -12.6896   26.0816 C   0  0  0  0  0  0  0  0  0  0  0  0
    6.6037  -12.9329   27.0988 C   0  0  2  0  0  0  0  0  0  0  0  0
    7.1485  -11.5843   27.4989 C   0  0  0  0  0  0  0  0  0  0  0  0
    7.6630  -13.8037   26.4654 C   0  0  2  0  0  0  0  0  0  0  0  0
    7.1367  -15.1099   26.1070 N   0  0  0  0  0  0  0  0  0  0  0  0
    8.7943  -13.9429   27.4177 C   0  0  0  0  0  0  0  0  0  0  0  0
    9.7019  -12.9363   27.6186 O   0  0  0  0  0  0  0  0  0  0  0  0
    8.9211  -15.0197   28.0586 O   0  0  0  0  0  0  0  0  0  0  0  0
  1  2  1  0
  2  3  1  0
  4  5  1  0
  4  3  1  0
  5  6  1  6
  7  5  1  0
  8  7  2  0
  9 10  1  0
 10 11  1  0
 13 12  1  1
 12 11  1  0
 13 14  1  0
 14  7  1  0
 15 21  1  0
 15 13  1  0
 16 15  2  0
 18 17  1  6
 18 20  1  0
 18 19  1  0
 20 22  1  0
 20 21  1  1
 22 23  1  0
 24 22  2  0
M  END
$$$$
