MMV.pdb
     RDKit          3D

 24 23  0  0  1  0  0  0  0  0999 V2000
    8.1426  -11.9193   18.9071 C   0  0  0  0  0  0  0  0  0  0  0  0
    8.2403  -13.2959   17.7529 S   0  0  0  0  0  0  0  0  0  0  0  0
    8.4917  -14.8783   18.6334 C   0  0  0  0  0  0  0  0  0  0  0  0
    8.9091  -14.5492   20.0320 C   0  0  0  0  0  0  0  0  0  0  0  0
    9.1164  -15.7631   20.8917 C   0  0  2  0  0  0  0  0  0  0  0  0
    8.0502  -16.7015   20.7182 N   0  0  0  0  0  0  0  0  0  0  0  0
    9.3161  -15.4001   22.3284 C   0  0  0  0  0  0  0  0  0  0  0  0
   10.3669  -14.7994   22.6527 O   0  0  0  0  0  0  0  0  0  0  0  0
    6.2700  -11.4676   26.6496 C   0  0  0  0  0  0  0  0  0  0  0  0
    5.5795  -13.1253   26.6805 S   0  0  0  0  0  0  0  0  0  0  0  0
    6.9424  -14.3312   26.5126 C   0  0  0  0  0  0  0  0  0  0  0  0
    6.8635  -14.9864   25.1648 C   0  0  0  0  0  0  0  0  0  0  0  0
    8.2767  -15.2140   24.6542 C   0  0  2  0  0  0  0  0  0  0  0  0
    8.3652  -15.7111   23.3209 N   0  0  0  0  0  0  0  0  0  0  0  0
    9.1963  -15.7883   25.6243 C   0  0  0  0  0  0  0  0  0  0  0  0
    9.4835  -17.0180   25.5050 O   0  0  0  0  0  0  0  0  0  0  0  0
   10.1560  -14.9212   29.7887 C   0  0  0  0  0  0  0  0  0  0  0  0
   11.2069  -14.8915   28.6998 C   0  0  2  0  0  0  0  0  0  0  0  0
   11.3604  -13.4546   28.2672 C   0  0  0  0  0  0  0  0  0  0  0  0
   10.7472  -15.7761   27.5649 C   0  0  2  0  0  0  0  0  0  0  0  0
    9.8042  -15.0880   26.6994 N   0  0  0  0  0  0  0  0  0  0  0  0
   10.1298  -16.9996   28.1373 C   0  0  0  0  0  0  0  0  0  0  0  0
   10.8815  -18.0738   28.5352 O   0  0  0  0  0  0  0  0  0  0  0  0
    8.8772  -17.0488   28.2595 O   0  0  0  0  0  0  0  0  0  0  0  0
  1  2  1  0
  2  3  1  0
  4  5  1  0
  4  3  1  0
  5  6  1  1
  7  5  1  0
  8  7  2  0
  9 10  1  0
 10 11  1  0
 13 12  1  1
 12 11  1  0
 13 14  1  0
 14  7  1  0
 15 21  1  0
 15 13  1  0
 16 15  2  0
 18 17  1  1
 18 20  1  0
 18 19  1  0
 20 22  1  0
 20 21  1  1
 22 23  1  0
 24 22  2  0
M  END
$$$$
