MMV.pdb
     RDKit          3D

 24 23  0  0  1  0  0  0  0  0999 V2000
    7.1613  -11.7434   19.6199 C   0  0  0  0  0  0  0  0  0  0  0  0
    8.5780  -12.8490   19.7078 S   0  0  0  0  0  0  0  0  0  0  0  0
    8.0763  -14.5864   19.4396 C   0  0  0  0  0  0  0  0  0  0  0  0
    9.3019  -15.4323   19.5846 C   0  0  0  0  0  0  0  0  0  0  0  0
    9.2364  -16.3791   20.7486 C   0  0  2  0  0  0  0  0  0  0  0  0
    8.0643  -17.1968   20.6781 N   0  0  0  0  0  0  0  0  0  0  0  0
    9.3422  -15.6618   22.0562 C   0  0  0  0  0  0  0  0  0  0  0  0
   10.3291  -14.9142   22.2499 O   0  0  0  0  0  0  0  0  0  0  0  0
    6.0919  -11.4841   26.6357 C   0  0  0  0  0  0  0  0  0  0  0  0
    5.6201  -13.2169   26.6164 S   0  0  0  0  0  0  0  0  0  0  0  0
    7.0976  -14.2226   26.2348 C   0  0  0  0  0  0  0  0  0  0  0  0
    6.9626  -14.8018   24.8570 C   0  0  0  0  0  0  0  0  0  0  0  0
    8.3438  -15.1964   24.3608 C   0  0  2  0  0  0  0  0  0  0  0  0
    8.3727  -15.8003   23.0695 N   0  0  0  0  0  0  0  0  0  0  0  0
    9.2173  -15.7765   25.3692 C   0  0  0  0  0  0  0  0  0  0  0  0
    9.6693  -16.9421   25.1546 O   0  0  0  0  0  0  0  0  0  0  0  0
   11.2912  -13.6955   28.3254 C   0  0  0  0  0  0  0  0  0  0  0  0
   10.7375  -15.0374   28.7537 C   0  0  2  0  0  0  0  0  0  0  0  0
   11.7716  -15.6836   29.6417 C   0  0  0  0  0  0  0  0  0  0  0  0
   10.4627  -15.8602   27.5171 C   0  0  2  0  0  0  0  0  0  0  0  0
    9.6106  -15.1478   26.5800 N   0  0  0  0  0  0  0  0  0  0  0  0
    9.8274  -17.1379   27.9291 C   0  0  0  0  0  0  0  0  0  0  0  0
   10.5553  -18.2839   28.1136 O   0  0  0  0  0  0  0  0  0  0  0  0
    8.5818  -17.1663   28.1136 O   0  0  0  0  0  0  0  0  0  0  0  0
  1  2  1  0
  2  3  1  0
  4  5  1  0
  4  3  1  0
  5  6  1  1
  7  5  1  0
  8  7  2  0
  9 10  1  0
 10 11  1  0
 13 12  1  1
 12 11  1  0
 13 14  1  0
 14  7  1  0
 15 21  1  0
 15 13  1  0
 16 15  2  0
 18 17  1  6
 18 20  1  0
 18 19  1  0
 20 22  1  0
 20 21  1  6
 22 23  1  0
 24 22  2  0
M  END
$$$$
