PYR.pdb
     RDKit          3D

 31 32  0  0  1  0  0  0  0  0999 V2000
   26.6468  -20.6683  -17.1105 N   0  0  0  0  0  0  0  0  0  0  0  0
   27.9509  -20.1525  -16.8620 C   0  0  0  0  0  0  0  0  0  0  0  0
   28.8754  -21.3349  -16.6846 C   0  0  0  0  0  0  0  0  0  0  0  0
   27.9834  -22.5262  -16.7604 C   0  0  0  0  0  0  0  0  0  0  0  0
   26.5689  -21.9916  -16.5942 C   0  0  1  0  0  0  0  0  0  0  0  0
   26.2091  -22.1005  -15.1717 C   0  0  0  0  0  0  0  0  0  0  0  0
   26.0584  -23.2481  -14.6245 O   0  0  0  0  0  0  0  0  0  0  0  0
   25.4111  -20.4075   -6.5387 O   0  0  0  0  0  0  0  0  0  0  0  0
   25.6728  -20.3746   -7.9160 C   0  0  0  0  0  0  0  0  0  0  0  0
   26.6281  -21.1597   -8.4741 C   0  0  0  0  0  0  0  0  0  0  0  0
   26.8596  -21.1001   -9.8448 C   0  0  0  0  0  0  0  0  0  0  0  0
   26.1393  -20.2577  -10.6613 C   0  0  0  0  0  0  0  0  0  0  0  0
   26.3777  -20.1881  -12.0994 C   0  0  0  0  0  0  0  0  0  0  0  0
   25.5643  -21.1899  -12.9126 C   0  0  2  0  0  0  0  0  0  0  0  0
   25.9974  -21.0116  -14.2848 N   0  0  0  0  0  0  0  0  0  0  0  0
   24.1108  -20.9346  -12.8098 C   0  0  0  0  0  0  0  0  0  0  0  0
   23.5831  -19.9742  -13.4639 O   0  0  0  0  0  0  0  0  0  0  0  0
   25.1769  -19.4706  -10.0773 C   0  0  0  0  0  0  0  0  0  0  0  0
   24.9340  -19.5214   -8.6986 C   0  0  0  0  0  0  0  0  0  0  0  0
   19.3984  -24.6151   -7.1098 N   0  0  0  0  0  0  0  0  0  0  0  0
   18.4673  -23.9937   -8.0047 C   0  0  0  0  0  0  0  0  0  0  0  0
   17.2008  -24.2548   -7.8545 N   0  0  0  0  0  0  0  0  0  0  0  0
   18.8736  -23.1190   -9.0308 N   0  0  0  0  0  0  0  0  0  0  0  0
   19.1022  -23.6165  -10.3629 C   0  0  0  0  0  0  0  0  0  0  0  0
   19.6662  -22.4442  -11.1991 C   0  0  0  0  0  0  0  0  0  0  0  0
   21.1627  -22.4495  -11.0660 C   0  0  0  0  0  0  0  0  0  0  0  0
   21.7929  -21.4669  -11.9897 C   0  0  2  0  0  0  0  0  0  0  0  0
   23.2437  -21.7078  -12.0110 N   0  0  0  0  0  0  0  0  0  0  0  0
   21.5792  -20.0876  -11.5166 C   0  0  0  0  0  0  0  0  0  0  0  0
   20.6695  -19.2862  -12.2327 O   0  0  0  0  0  0  0  0  0  0  0  0
   22.1384  -19.5537  -10.5237 O   0  0  0  0  0  0  0  0  0  0  0  0
  1  2  1  0
  3  2  1  0
  4  3  1  0
  5  4  1  0
  5  1  1  0
  5  6  1  1
  6  7  2  0
  8  9  1  0
  9 19  2  0
 10 11  2  0
 10  9  1  0
 11 12  1  0
 12 13  1  0
 12 18  2  0
 14 13  1  1
 14 16  1  0
 15  6  1  0
 15 14  1  0
 16 17  2  0
 19 18  1  0
 20 21  1  0
 21 23  1  0
 22 21  2  0
 23 24  1  0
 24 25  1  0
 25 26  1  0
 27 26  1  1
 27 29  1  0
 28 16  1  0
 28 27  1  0
 29 31  2  0
 29 30  1  0
M  END
$$$$
