PYR.pdb
     RDKit          3D

 31 32  0  0  1  0  0  0  0  0999 V2000
   28.6636  -21.7250  -12.8637 N   0  0  0  0  0  0  0  0  0  0  0  0
   29.4360  -20.6836  -13.4531 C   0  0  0  0  0  0  0  0  0  0  0  0
   29.7126  -19.6631  -12.3732 C   0  0  0  0  0  0  0  0  0  0  0  0
   28.9693  -20.1629  -11.1822 C   0  0  0  0  0  0  0  0  0  0  0  0
   28.0049  -21.2138  -11.7110 C   0  0  1  0  0  0  0  0  0  0  0  0
   26.7109  -20.5574  -11.9551 C   0  0  0  0  0  0  0  0  0  0  0  0
   26.1961  -19.7855  -11.0730 O   0  0  0  0  0  0  0  0  0  0  0  0
   28.7532  -16.0006  -16.2287 O   0  0  0  0  0  0  0  0  0  0  0  0
   27.7161  -16.8670  -15.8541 C   0  0  0  0  0  0  0  0  0  0  0  0
   26.6531  -16.4290  -15.1338 C   0  0  0  0  0  0  0  0  0  0  0  0
   25.6426  -17.3179  -14.7805 C   0  0  0  0  0  0  0  0  0  0  0  0
   25.6901  -18.6447  -15.1446 C   0  0  0  0  0  0  0  0  0  0  0  0
   24.6352  -19.5833  -14.7760 C   0  0  0  0  0  0  0  0  0  0  0  0
   24.6603  -20.0004  -13.3091 C   0  0  2  0  0  0  0  0  0  0  0  0
   25.9219  -20.6917  -13.1284 N   0  0  0  0  0  0  0  0  0  0  0  0
   23.5406  -20.9070  -12.9730 C   0  0  0  0  0  0  0  0  0  0  0  0
   23.5497  -22.1140  -13.3874 O   0  0  0  0  0  0  0  0  0  0  0  0
   26.7746  -19.0687  -15.8732 C   0  0  0  0  0  0  0  0  0  0  0  0
   27.7984  -18.1838  -16.2353 C   0  0  0  0  0  0  0  0  0  0  0  0
   17.6466  -23.2170   -9.0254 N   0  0  0  0  0  0  0  0  0  0  0  0
   18.4442  -23.8589   -8.0227 C   0  0  0  0  0  0  0  0  0  0  0  0
   17.9922  -24.9547   -7.4845 N   0  0  0  0  0  0  0  0  0  0  0  0
   19.6883  -23.3483   -7.6050 N   0  0  0  0  0  0  0  0  0  0  0  0
   20.2088  -22.1366   -8.1841 C   0  0  0  0  0  0  0  0  0  0  0  0
   20.3466  -22.3785   -9.7053 C   0  0  0  0  0  0  0  0  0  0  0  0
   21.2447  -21.3151  -10.2708 C   0  0  0  0  0  0  0  0  0  0  0  0
   21.4252  -21.4820  -11.7389 C   0  0  2  0  0  0  0  0  0  0  0  0
   22.4295  -20.5115  -12.2005 N   0  0  0  0  0  0  0  0  0  0  0  0
   20.1710  -21.1989  -12.4591 C   0  0  0  0  0  0  0  0  0  0  0  0
   19.2081  -22.2243  -12.5193 O   0  0  0  0  0  0  0  0  0  0  0  0
   19.8770  -20.1170  -13.0307 O   0  0  0  0  0  0  0  0  0  0  0  0
  1  2  1  0
  3  2  1  0
  4  3  1  0
  5  4  1  0
  5  1  1  0
  5  6  1  6
  6  7  2  0
  8  9  1  0
  9 19  2  0
 10 11  2  0
 10  9  1  0
 11 12  1  0
 12 13  1  0
 12 18  2  0
 14 13  1  6
 14 16  1  0
 15  6  1  0
 15 14  1  0
 16 17  2  0
 19 18  1  0
 20 21  1  0
 21 23  1  0
 22 21  2  0
 23 24  1  0
 24 25  1  0
 25 26  1  0
 27 26  1  1
 27 29  1  0
 28 16  1  0
 28 27  1  0
 29 31  2  0
 29 30  1  0
M  END
$$$$
