PYR.pdb
     RDKit          3D

 31 32  0  0  1  0  0  0  0  0999 V2000
   27.9021  -21.0572  -18.2802 N   0  0  0  0  0  0  0  0  0  0  0  0
   29.0764  -20.3906  -17.8270 C   0  0  0  0  0  0  0  0  0  0  0  0
   30.0569  -21.4547  -17.3905 C   0  0  0  0  0  0  0  0  0  0  0  0
   29.3155  -22.7380  -17.5466 C   0  0  0  0  0  0  0  0  0  0  0  0
   27.8514  -22.3516  -17.6922 C   0  0  1  0  0  0  0  0  0  0  0  0
   27.2310  -22.4224  -16.3599 C   0  0  0  0  0  0  0  0  0  0  0  0
   27.1634  -23.5359  -15.7318 O   0  0  0  0  0  0  0  0  0  0  0  0
   24.6853  -20.3138   -8.1829 O   0  0  0  0  0  0  0  0  0  0  0  0
   25.1655  -20.3303   -9.5004 C   0  0  0  0  0  0  0  0  0  0  0  0
   26.2720  -21.0372   -9.8417 C   0  0  0  0  0  0  0  0  0  0  0  0
   26.7190  -21.0302  -11.1594 C   0  0  0  0  0  0  0  0  0  0  0  0
   26.0638  -20.3184  -12.1388 C   0  0  0  0  0  0  0  0  0  0  0  0
   26.5277  -20.3045  -13.5224 C   0  0  0  0  0  0  0  0  0  0  0  0
   26.0286  -21.4802  -14.3562 C   0  0  2  0  0  0  0  0  0  0  0  0
   26.6649  -21.3301  -15.6503 N   0  0  0  0  0  0  0  0  0  0  0  0
   24.5581  -21.4593  -14.5164 C   0  0  0  0  0  0  0  0  0  0  0  0
   24.0143  -20.6244  -15.3139 O   0  0  0  0  0  0  0  0  0  0  0  0
   24.9459  -19.6088  -11.7732 C   0  0  0  0  0  0  0  0  0  0  0  0
   24.4856  -19.6078  -10.4501 C   0  0  0  0  0  0  0  0  0  0  0  0
   18.4338  -27.3201  -12.4268 N   0  0  0  0  0  0  0  0  0  0  0  0
   18.8764  -26.8599  -13.7098 C   0  0  0  0  0  0  0  0  0  0  0  0
   18.8030  -27.6809  -14.7175 N   0  0  0  0  0  0  0  0  0  0  0  0
   19.3828  -25.5618  -13.9140 N   0  0  0  0  0  0  0  0  0  0  0  0
   19.5367  -24.6580  -12.8033 C   0  0  0  0  0  0  0  0  0  0  0  0
   20.1066  -23.3347  -13.3653 C   0  0  0  0  0  0  0  0  0  0  0  0
   21.6063  -23.4216  -13.3421 C   0  0  0  0  0  0  0  0  0  0  0  0
   22.2295  -22.1974  -13.9155 C   0  0  2  0  0  0  0  0  0  0  0  0
   23.6914  -22.3291  -13.8235 N   0  0  0  0  0  0  0  0  0  0  0  0
   21.8427  -21.0006  -13.1473 C   0  0  0  0  0  0  0  0  0  0  0  0
   20.7471  -20.2508  -13.6162 O   0  0  0  0  0  0  0  0  0  0  0  0
   22.4047  -20.5819  -12.1021 O   0  0  0  0  0  0  0  0  0  0  0  0
  1  2  1  0
  3  2  1  0
  4  3  1  0
  5  4  1  0
  5  1  1  0
  5  6  1  1
  6  7  2  0
  8  9  1  0
  9 19  2  0
 10 11  2  0
 10  9  1  0
 11 12  1  0
 12 13  1  0
 12 18  2  0
 14 13  1  1
 14 16  1  0
 15  6  1  0
 15 14  1  0
 16 17  2  0
 19 18  1  0
 20 21  1  0
 21 23  1  0
 22 21  2  0
 23 24  1  0
 24 25  1  0
 25 26  1  0
 27 26  1  1
 27 29  1  0
 28 16  1  0
 28 27  1  0
 29 31  2  0
 29 30  1  0
M  END
$$$$
