PYR.pdb
     RDKit          3D

 31 32  0  0  1  0  0  0  0  0999 V2000
   27.5555  -21.5462  -13.9329 N   0  0  0  0  0  0  0  0  0  0  0  0
   28.1069  -20.5358  -14.7718 C   0  0  0  0  0  0  0  0  0  0  0  0
   28.4673  -19.3646  -13.8871 C   0  0  0  0  0  0  0  0  0  0  0  0
   27.9969  -19.7586  -12.5290 C   0  0  0  0  0  0  0  0  0  0  0  0
   27.0623  -20.9394  -12.7444 C   0  0  1  0  0  0  0  0  0  0  0  0
   25.6876  -20.4200  -12.8173 C   0  0  0  0  0  0  0  0  0  0  0  0
   25.2496  -19.6105  -11.9273 O   0  0  0  0  0  0  0  0  0  0  0  0
   26.8029  -15.2264  -16.0169 O   0  0  0  0  0  0  0  0  0  0  0  0
   25.8953  -16.2714  -15.7918 C   0  0  0  0  0  0  0  0  0  0  0  0
   24.7477  -16.0747  -15.0955 C   0  0  0  0  0  0  0  0  0  0  0  0
   23.8707  -17.1357  -14.8921 C   0  0  0  0  0  0  0  0  0  0  0  0
   24.1363  -18.3943  -15.3824 C   0  0  0  0  0  0  0  0  0  0  0  0
   23.2224  -19.5124  -15.1714 C   0  0  0  0  0  0  0  0  0  0  0  0
   23.3867  -20.2018  -13.8207 C   0  0  2  0  0  0  0  0  0  0  0  0
   24.7354  -20.7340  -13.8232 N   0  0  0  0  0  0  0  0  0  0  0  0
   22.4150  -21.3026  -13.6403 C   0  0  0  0  0  0  0  0  0  0  0  0
   22.6015  -22.4215  -14.2251 O   0  0  0  0  0  0  0  0  0  0  0  0
   25.3034  -18.5733  -16.0842 C   0  0  0  0  0  0  0  0  0  0  0  0
   26.1945  -17.5134  -16.2960 C   0  0  0  0  0  0  0  0  0  0  0  0
   16.6625  -25.1859   -8.1792 N   0  0  0  0  0  0  0  0  0  0  0  0
   17.9753  -24.6667   -7.9326 C   0  0  0  0  0  0  0  0  0  0  0  0
   18.5425  -24.9420   -6.7936 N   0  0  0  0  0  0  0  0  0  0  0  0
   18.6645  -23.8765   -8.8725 N   0  0  0  0  0  0  0  0  0  0  0  0
   17.9373  -23.1092   -9.8507 C   0  0  0  0  0  0  0  0  0  0  0  0
   18.6368  -23.3236  -11.2132 C   0  0  0  0  0  0  0  0  0  0  0  0
   19.7009  -22.2740  -11.3654 C   0  0  0  0  0  0  0  0  0  0  0  0
   20.2852  -22.2885  -12.7344 C   0  0  2  0  0  0  0  0  0  0  0  0
   21.2602  -21.1922  -12.8391 N   0  0  0  0  0  0  0  0  0  0  0  0
   19.2458  -22.0565  -13.7530 C   0  0  0  0  0  0  0  0  0  0  0  0
   18.7297  -23.1805  -14.4257 O   0  0  0  0  0  0  0  0  0  0  0  0
   18.7716  -20.9379  -14.0812 O   0  0  0  0  0  0  0  0  0  0  0  0
  1  2  1  0
  3  2  1  0
  4  3  1  0
  5  4  1  0
  5  1  1  0
  5  6  1  6
  6  7  2  0
  8  9  1  0
  9 19  2  0
 10 11  2  0
 10  9  1  0
 11 12  1  0
 12 13  1  0
 12 18  2  0
 14 13  1  6
 14 16  1  0
 15  6  1  0
 15 14  1  0
 16 17  2  0
 19 18  1  0
 20 21  1  0
 21 23  1  0
 22 21  2  0
 23 24  1  0
 24 25  1  0
 25 26  1  0
 27 26  1  1
 27 29  1  0
 28 16  1  0
 28 27  1  0
 29 31  2  0
 29 30  1  0
M  END
$$$$
