NPL.pdb
     RDKit          3D

 24 24  0  0  1  0  0  0  0  0999 V2000
   15.3882  -12.4104  -16.9811 N   0  0  0  0  0  0  0  0  0  0  0  0
   14.5111  -11.9511  -15.9725 C   0  0  0  0  0  0  0  0  0  0  0  0
   13.2769  -12.0699  -16.1590 O   0  0  0  0  0  0  0  0  0  0  0  0
   14.9625  -11.3287  -14.6897 C   0  0  0  0  0  0  0  0  0  0  0  0
   16.4705  -11.3068  -14.6722 C   0  0  2  0  0  0  0  0  0  0  0  0
   16.8829  -12.6983  -14.4403 N   0  0  0  0  0  0  0  0  0  0  0  0
   17.0588  -10.4052  -13.6655 C   0  0  0  0  0  0  0  0  0  0  0  0
   17.4176  -10.8419  -12.5393 O   0  0  0  0  0  0  0  0  0  0  0  0
   17.2414   -9.0350  -13.9361 N   0  0  0  0  0  0  0  0  0  0  0  0
   17.0447   -8.3981  -15.2339 C   0  0  0  0  0  0  0  0  0  0  0  0
   18.1010   -7.3000  -15.2862 C   0  0  0  0  0  0  0  0  0  0  0  0
   18.6144   -7.1168  -13.8790 C   0  0  0  0  0  0  0  0  0  0  0  0
   17.7019   -8.0229  -13.0384 C   0  0  1  0  0  0  0  0  0  0  0  0
   16.6541   -7.2058  -12.3663 C   0  0  0  0  0  0  0  0  0  0  0  0
   15.5725   -7.0775  -12.9932 O   0  0  0  0  0  0  0  0  0  0  0  0
   14.6945   -6.8003   -6.6566 C   0  0  0  0  0  0  0  0  0  0  0  0
   14.4287   -6.4288   -8.0761 C   0  0  2  0  0  0  0  0  0  0  0  0
   13.0218   -6.9738   -8.4297 C   0  0  0  0  0  0  0  0  0  0  0  0
   15.4465   -6.9282   -9.0219 C   0  0  0  0  0  0  0  0  0  0  0  0
   15.8467   -6.1042  -10.1815 C   0  0  2  0  0  0  0  0  0  0  0  0
   16.7927   -6.5840  -11.1066 N   0  0  0  0  0  0  0  0  0  0  0  0
   15.9073   -4.6669   -9.7841 C   0  0  0  0  0  0  0  0  0  0  0  0
   17.1915   -4.1047   -9.7332 O   0  0  0  0  0  0  0  0  0  0  0  0
   14.9653   -3.9702   -9.5105 O   0  0  0  0  0  0  0  0  0  0  0  0
  1  2  1  0
  2  3  2  0
  4  2  1  0
  5  4  1  0
  5  6  1  1
  7  5  1  0
  7  8  2  0
  9  7  1  0
 10  9  1  0
 11 12  1  0
 11 10  1  0
 12 13  1  0
 13  9  1  0
 14 21  1  0
 13 14  1  6
 15 14  2  0
 17 16  1  1
 18 17  1  0
 19 17  1  0
 20 21  1  0
 20 19  1  1
 22 20  1  0
 23 22  1  0
 24 22  2  0
M  END
$$$$
