NPL.pdb
     RDKit          3D

 24 24  0  0  1  0  0  0  0  0999 V2000
   22.9525  -13.3294  -21.6253 N   0  0  0  0  0  0  0  0  0  0  0  0
   23.8379  -12.6219  -20.7810 C   0  0  0  0  0  0  0  0  0  0  0  0
   25.0688  -12.7121  -21.0014 O   0  0  0  0  0  0  0  0  0  0  0  0
   23.3989  -11.7677  -19.6345 C   0  0  0  0  0  0  0  0  0  0  0  0
   23.8774  -12.4026  -18.3528 C   0  0  2  0  0  0  0  0  0  0  0  0
   23.1668  -13.6857  -18.2586 N   0  0  0  0  0  0  0  0  0  0  0  0
   23.6587  -11.5862  -17.1453 C   0  0  0  0  0  0  0  0  0  0  0  0
   22.6008  -11.7021  -16.4708 O   0  0  0  0  0  0  0  0  0  0  0  0
   24.6268  -10.6603  -16.7097 N   0  0  0  0  0  0  0  0  0  0  0  0
   25.9464  -10.4773  -17.3042 C   0  0  0  0  0  0  0  0  0  0  0  0
   26.8518  -10.1286  -16.1283 C   0  0  0  0  0  0  0  0  0  0  0  0
   25.9513   -9.7702  -14.9716 C   0  0  0  0  0  0  0  0  0  0  0  0
   24.5452   -9.7754  -15.5906 C   0  0  1  0  0  0  0  0  0  0  0  0
   24.1115   -8.3803  -15.8785 C   0  0  0  0  0  0  0  0  0  0  0  0
   24.6540   -7.8308  -16.8700 O   0  0  0  0  0  0  0  0  0  0  0  0
   20.7936   -7.2380  -18.2895 C   0  0  0  0  0  0  0  0  0  0  0  0
   20.6645   -7.6120  -16.8517 C   0  0  2  0  0  0  0  0  0  0  0  0
   19.1907   -8.0344  -16.6256 C   0  0  0  0  0  0  0  0  0  0  0  0
   21.0593   -6.5368  -15.9200 C   0  0  0  0  0  0  0  0  0  0  0  0
   22.4432   -6.4745  -15.4058 C   0  0  2  0  0  0  0  0  0  0  0  0
   23.1576   -7.6557  -15.1316 N   0  0  0  0  0  0  0  0  0  0  0  0
   22.5816   -5.3256  -14.4633 C   0  0  0  0  0  0  0  0  0  0  0  0
   23.0232   -5.6495  -13.1718 O   0  0  0  0  0  0  0  0  0  0  0  0
   22.3497   -4.1726  -14.7173 O   0  0  0  0  0  0  0  0  0  0  0  0
  1  2  1  0
  2  3  2  0
  4  2  1  0
  5  4  1  0
  5  6  1  1
  7  5  1  0
  7  8  2  0
  9  7  1  0
 10  9  1  0
 11 12  1  0
 11 10  1  0
 12 13  1  0
 13  9  1  0
 14 21  1  0
 13 14  1  6
 15 14  2  0
 17 16  1  6
 18 17  1  0
 19 17  1  0
 20 21  1  0
 20 19  1  1
 22 20  1  0
 23 22  1  0
 24 22  2  0
M  END
$$$$
