NPL.pdb
     RDKit          3D

 24 24  0  0  1  0  0  0  0  0999 V2000
   21.8478  -18.5284  -17.4722 N   0  0  0  0  0  0  0  0  0  0  0  0
   23.2242  -18.3161  -17.7130 C   0  0  0  0  0  0  0  0  0  0  0  0
   23.7204  -17.2108  -17.3906 O   0  0  0  0  0  0  0  0  0  0  0  0
   24.1324  -19.3307  -18.3315 C   0  0  0  0  0  0  0  0  0  0  0  0
   25.4464  -19.3123  -17.5914 C   0  0  2  0  0  0  0  0  0  0  0  0
   26.4668  -19.6620  -18.5898 N   0  0  0  0  0  0  0  0  0  0  0  0
   25.5089  -20.2183  -16.4305 C   0  0  0  0  0  0  0  0  0  0  0  0
   24.7344  -21.2082  -16.3420 O   0  0  0  0  0  0  0  0  0  0  0  0
   26.4380  -20.0065  -15.3932 N   0  0  0  0  0  0  0  0  0  0  0  0
   27.4875  -18.9930  -15.3950 C   0  0  0  0  0  0  0  0  0  0  0  0
   28.6499  -19.6434  -14.6533 C   0  0  0  0  0  0  0  0  0  0  0  0
   28.0959  -20.8549  -13.9443 C   0  0  0  0  0  0  0  0  0  0  0  0
   26.5817  -20.7561  -14.1851 C   0  0  1  0  0  0  0  0  0  0  0  0
   25.9102  -20.2022  -12.9770 C   0  0  0  0  0  0  0  0  0  0  0  0
   26.0592  -18.9695  -12.7833 O   0  0  0  0  0  0  0  0  0  0  0  0
   20.7454  -20.9603  -11.7202 C   0  0  0  0  0  0  0  0  0  0  0  0
   22.1049  -20.3526  -11.8010 C   0  0  2  0  0  0  0  0  0  0  0  0
   22.6705  -20.6964  -13.2022 C   0  0  0  0  0  0  0  0  0  0  0  0
   23.0205  -20.8000  -10.7326 C   0  0  0  0  0  0  0  0  0  0  0  0
   24.4770  -20.5936  -10.8719 C   0  0  2  0  0  0  0  0  0  0  0  0
   25.1388  -20.9504  -12.0616 N   0  0  0  0  0  0  0  0  0  0  0  0
   25.1542  -20.8719   -9.5713 C   0  0  0  0  0  0  0  0  0  0  0  0
   26.2990  -21.6793   -9.6434 O   0  0  0  0  0  0  0  0  0  0  0  0
   24.8041  -20.4688   -8.4931 O   0  0  0  0  0  0  0  0  0  0  0  0
  1  2  1  0
  2  3  2  0
  4  2  1  0
  5  4  1  0
  5  6  1  6
  7  5  1  0
  7  8  2  0
  9  7  1  0
 10  9  1  0
 11 12  1  0
 11 10  1  0
 12 13  1  0
 13  9  1  0
 14 21  1  0
 13 14  1  1
 15 14  2  0
 17 16  1  1
 18 17  1  0
 19 17  1  0
 20 21  1  0
 20 19  1  1
 22 20  1  0
 23 22  1  0
 24 22  2  0
M  END
$$$$
