NPL.pdb
     RDKit          3D

 24 24  0  0  1  0  0  0  0  0999 V2000
   24.9910  -19.2888  -14.0624 N   0  0  0  0  0  0  0  0  0  0  0  0
   24.3759  -19.4414  -12.7991 C   0  0  0  0  0  0  0  0  0  0  0  0
   23.1390  -19.2547  -12.7140 O   0  0  0  0  0  0  0  0  0  0  0  0
   25.1094  -19.8132  -11.5499 C   0  0  0  0  0  0  0  0  0  0  0  0
   25.7296  -21.1741  -11.7451 C   0  0  2  0  0  0  0  0  0  0  0  0
   24.6055  -22.0888  -11.9899 N   0  0  0  0  0  0  0  0  0  0  0  0
   26.5548  -21.6394  -10.6161 C   0  0  0  0  0  0  0  0  0  0  0  0
   26.0418  -22.2900   -9.6668 O   0  0  0  0  0  0  0  0  0  0  0  0
   27.9377  -21.3756  -10.5701 N   0  0  0  0  0  0  0  0  0  0  0  0
   28.7231  -20.8003  -11.6568 C   0  0  0  0  0  0  0  0  0  0  0  0
   30.0857  -21.4746  -11.5438 C   0  0  0  0  0  0  0  0  0  0  0  0
   30.1399  -22.1312  -10.1861 C   0  0  0  0  0  0  0  0  0  0  0  0
   28.8451  -21.6632   -9.5042 C   0  0  1  0  0  0  0  0  0  0  0  0
   29.1406  -20.5460   -8.5651 C   0  0  0  0  0  0  0  0  0  0  0  0
   28.7693  -19.4044   -8.9367 O   0  0  0  0  0  0  0  0  0  0  0  0
   26.4593  -19.7092   -3.7689 C   0  0  0  0  0  0  0  0  0  0  0  0
   27.8311  -19.4034   -4.2675 C   0  0  2  0  0  0  0  0  0  0  0  0
   27.9820  -17.8611   -4.2568 C   0  0  0  0  0  0  0  0  0  0  0  0
   28.1139  -19.9569   -5.6068 C   0  0  0  0  0  0  0  0  0  0  0  0
   29.5109  -20.1559   -6.0453 C   0  0  2  0  0  0  0  0  0  0  0  0
   29.7917  -20.6823   -7.3200 N   0  0  0  0  0  0  0  0  0  0  0  0
   30.3442  -20.6054   -4.8917 C   0  0  0  0  0  0  0  0  0  0  0  0
   31.0436  -19.5935   -4.2171 O   0  0  0  0  0  0  0  0  0  0  0  0
   30.4609  -21.7386   -4.5046 O   0  0  0  0  0  0  0  0  0  0  0  0
  1  2  1  0
  2  3  2  0
  4  2  1  0
  5  4  1  0
  5  6  1  1
  7  5  1  0
  7  8  2  0
  9  7  1  0
 10  9  1  0
 11 12  1  0
 11 10  1  0
 12 13  1  0
 13  9  1  0
 14 21  1  0
 13 14  1  6
 15 14  2  0
 17 16  1  6
 18 17  1  0
 19 17  1  0
 20 21  1  0
 20 19  1  1
 22 20  1  0
 23 22  1  0
 24 22  2  0
M  END
$$$$
