NPL.pdb
     RDKit          3D

 24 24  0  0  1  0  0  0  0  0999 V2000
   14.7825  -15.9988  -15.2210 N   0  0  0  0  0  0  0  0  0  0  0  0
   15.6447  -15.3624  -14.2994 C   0  0  0  0  0  0  0  0  0  0  0  0
   15.6697  -15.7854  -13.1194 O   0  0  0  0  0  0  0  0  0  0  0  0
   16.5341  -14.2101  -14.6427 C   0  0  0  0  0  0  0  0  0  0  0  0
   16.2460  -13.7884  -16.0618 C   0  0  2  0  0  0  0  0  0  0  0  0
   16.5191  -14.9724  -16.8887 N   0  0  0  0  0  0  0  0  0  0  0  0
   17.0252  -12.6267  -16.5263 C   0  0  0  0  0  0  0  0  0  0  0  0
   17.9390  -12.7635  -17.3830 O   0  0  0  0  0  0  0  0  0  0  0  0
   16.7664  -11.3337  -16.0311 N   0  0  0  0  0  0  0  0  0  0  0  0
   15.6687  -10.9763  -15.1391 C   0  0  0  0  0  0  0  0  0  0  0  0
   15.2695   -9.5686  -15.5670 C   0  0  0  0  0  0  0  0  0  0  0  0
   16.3849   -9.0405  -16.4356 C   0  0  0  0  0  0  0  0  0  0  0  0
   17.4672  -10.1265  -16.3374 C   0  0  1  0  0  0  0  0  0  0  0  0
   18.5207   -9.7081  -15.3718 C   0  0  0  0  0  0  0  0  0  0  0  0
   18.3690  -10.1038  -14.1888 O   0  0  0  0  0  0  0  0  0  0  0  0
   24.4551   -9.2216  -15.6412 C   0  0  0  0  0  0  0  0  0  0  0  0
   23.3130   -9.6294  -14.7734 C   0  0  2  0  0  0  0  0  0  0  0  0
   23.6818  -11.0029  -14.1576 C   0  0  0  0  0  0  0  0  0  0  0  0
   22.0202   -9.6940  -15.4836 C   0  0  0  0  0  0  0  0  0  0  0  0
   20.9142   -8.7966  -15.0902 C   0  0  2  0  0  0  0  0  0  0  0  0
   19.6469   -8.9187  -15.6902 N   0  0  0  0  0  0  0  0  0  0  0  0
   21.4444   -7.4274  -14.8222 C   0  0  0  0  0  0  0  0  0  0  0  0
   21.8677   -7.1871  -13.5065 O   0  0  0  0  0  0  0  0  0  0  0  0
   21.5348   -6.5360  -15.6252 O   0  0  0  0  0  0  0  0  0  0  0  0
  1  2  1  0
  2  3  2  0
  4  2  1  0
  5  4  1  0
  5  6  1  6
  7  5  1  0
  7  8  2  0
  9  7  1  0
 10  9  1  0
 11 12  1  0
 11 10  1  0
 12 13  1  0
 13  9  1  0
 14 21  1  0
 13 14  1  1
 15 14  2  0
 17 16  1  6
 18 17  1  0
 19 17  1  0
 20 21  1  0
 20 19  1  6
 22 20  1  0
 23 22  1  0
 24 22  2  0
M  END
$$$$
