NPL.pdb
     RDKit          3D

 24 24  0  0  1  0  0  0  0  0999 V2000
   15.5417  -15.9567    4.3080 N   0  0  0  0  0  0  0  0  0  0  0  0
   15.8582  -14.8699    5.1544 C   0  0  0  0  0  0  0  0  0  0  0  0
   14.9699  -14.0145    5.3805 O   0  0  0  0  0  0  0  0  0  0  0  0
   17.1922  -14.6731    5.8013 C   0  0  0  0  0  0  0  0  0  0  0  0
   17.6678  -13.2733    5.5027 C   0  0  2  0  0  0  0  0  0  0  0  0
   17.6847  -13.1664    4.0369 N   0  0  0  0  0  0  0  0  0  0  0  0
   18.9850  -12.9386    6.0733 C   0  0  0  0  0  0  0  0  0  0  0  0
   20.0439  -13.1665    5.4296 O   0  0  0  0  0  0  0  0  0  0  0  0
   19.0957  -12.3506    7.3484 N   0  0  0  0  0  0  0  0  0  0  0  0
   17.9794  -11.8686    8.1547 C   0  0  0  0  0  0  0  0  0  0  0  0
   18.5331  -10.6520    8.8879 C   0  0  0  0  0  0  0  0  0  0  0  0
   20.0353  -10.7038    8.7531 C   0  0  0  0  0  0  0  0  0  0  0  0
   20.2926  -12.0566    8.0719 C   0  0  1  0  0  0  0  0  0  0  0  0
   20.7198  -13.0620    9.0838 C   0  0  0  0  0  0  0  0  0  0  0  0
   19.7983  -13.7313    9.6150 O   0  0  0  0  0  0  0  0  0  0  0  0
   25.9817  -15.7278   11.1627 C   0  0  0  0  0  0  0  0  0  0  0  0
   24.5834  -15.9345   10.6876 C   0  0  2  0  0  0  0  0  0  0  0  0
   24.5931  -17.1990    9.7918 C   0  0  0  0  0  0  0  0  0  0  0  0
   24.0232  -14.7747    9.9657 C   0  0  0  0  0  0  0  0  0  0  0  0
   22.6421  -14.3278   10.2420 C   0  0  2  0  0  0  0  0  0  0  0  0
   22.0545  -13.3054    9.4736 N   0  0  0  0  0  0  0  0  0  0  0  0
   22.3891  -14.3459   11.7128 C   0  0  0  0  0  0  0  0  0  0  0  0
   21.8721  -15.5451   12.2252 O   0  0  0  0  0  0  0  0  0  0  0  0
   22.5881  -13.4358   12.4742 O   0  0  0  0  0  0  0  0  0  0  0  0
  1  2  1  0
  2  3  2  0
  4  2  1  0
  5  4  1  0
  5  6  1  6
  7  5  1  0
  7  8  2  0
  9  7  1  0
 10  9  1  0
 11 12  1  0
 11 10  1  0
 12 13  1  0
 13  9  1  0
 14 21  1  0
 13 14  1  1
 15 14  2  0
 17 16  1  6
 18 17  1  0
 19 17  1  0
 20 21  1  0
 20 19  1  1
 22 20  1  0
 23 22  1  0
 24 22  2  0
M  END
$$$$
