NPL.pdb
     RDKit          3D

 24 24  0  0  1  0  0  0  0  0999 V2000
   17.2554  -12.3863  -18.5439 N   0  0  0  0  0  0  0  0  0  0  0  0
   16.9893  -11.0025  -18.4345 C   0  0  0  0  0  0  0  0  0  0  0  0
   16.2087  -10.4800  -19.2650 O   0  0  0  0  0  0  0  0  0  0  0  0
   17.5824  -10.1159  -17.3862 C   0  0  0  0  0  0  0  0  0  0  0  0
   18.3954  -10.9667  -16.4428 C   0  0  2  0  0  0  0  0  0  0  0  0
   17.4193  -11.7810  -15.7049 N   0  0  0  0  0  0  0  0  0  0  0  0
   19.2568  -10.2065  -15.5195 C   0  0  0  0  0  0  0  0  0  0  0  0
   18.8430   -9.8747  -14.3765 O   0  0  0  0  0  0  0  0  0  0  0  0
   20.5653   -9.8360  -15.8861 N   0  0  0  0  0  0  0  0  0  0  0  0
   21.2650  -10.2865  -17.0845 C   0  0  0  0  0  0  0  0  0  0  0  0
   22.7242  -10.3983  -16.6574 C   0  0  0  0  0  0  0  0  0  0  0  0
   22.8559   -9.6629  -15.3463 C   0  0  0  0  0  0  0  0  0  0  0  0
   21.4764   -9.0145  -15.1531 C   0  0  1  0  0  0  0  0  0  0  0  0
   21.5319   -7.5775  -15.5395 C   0  0  0  0  0  0  0  0  0  0  0  0
   21.1298   -7.3052  -16.6986 O   0  0  0  0  0  0  0  0  0  0  0  0
   18.2013   -3.3086  -14.3734 C   0  0  0  0  0  0  0  0  0  0  0  0
   19.6700   -3.4718  -14.5735 C   0  0  2  0  0  0  0  0  0  0  0  0
   20.0320   -2.7311  -15.8857 C   0  0  0  0  0  0  0  0  0  0  0  0
   20.1110   -4.8802  -14.6178 C   0  0  0  0  0  0  0  0  0  0  0  0
   21.5489   -5.2085  -14.5263 C   0  0  2  0  0  0  0  0  0  0  0  0
   21.9930   -6.5311  -14.7118 N   0  0  0  0  0  0  0  0  0  0  0  0
   22.1883   -4.3877  -13.4563 C   0  0  0  0  0  0  0  0  0  0  0  0
   22.4451   -3.0495  -13.7895 O   0  0  0  0  0  0  0  0  0  0  0  0
   22.4935   -4.7737  -12.3584 O   0  0  0  0  0  0  0  0  0  0  0  0
  1  2  1  0
  2  3  2  0
  4  2  1  0
  5  4  1  0
  5  6  1  1
  7  5  1  0
  7  8  2  0
  9  7  1  0
 10  9  1  0
 11 12  1  0
 11 10  1  0
 12 13  1  0
 13  9  1  0
 14 21  1  0
 13 14  1  6
 15 14  2  0
 17 16  1  6
 18 17  1  0
 19 17  1  0
 20 21  1  0
 20 19  1  1
 22 20  1  0
 23 22  1  0
 24 22  2  0
M  END
$$$$
