NPL.pdb
     RDKit          3D

 24 24  0  0  1  0  0  0  0  0999 V2000
   27.0828  -28.2690  -16.7770 N   0  0  0  0  0  0  0  0  0  0  0  0
   27.5041  -27.2892  -17.7043 C   0  0  0  0  0  0  0  0  0  0  0  0
   27.7845  -27.6558  -18.8700 O   0  0  0  0  0  0  0  0  0  0  0  0
   27.6383  -25.8347  -17.3829 C   0  0  0  0  0  0  0  0  0  0  0  0
   29.1036  -25.5098  -17.2340 C   0  0  2  0  0  0  0  0  0  0  0  0
   29.5510  -26.2421  -16.0407 N   0  0  0  0  0  0  0  0  0  0  0  0
   29.4038  -24.0716  -17.1163 C   0  0  0  0  0  0  0  0  0  0  0  0
   29.6051  -23.5444  -15.9898 O   0  0  0  0  0  0  0  0  0  0  0  0
   29.4797  -23.2499  -18.2579 N   0  0  0  0  0  0  0  0  0  0  0  0
   29.3196  -23.7030  -19.6354 C   0  0  0  0  0  0  0  0  0  0  0  0
   30.2725  -22.8267  -20.4406 C   0  0  0  0  0  0  0  0  0  0  0  0
   30.6647  -21.6720  -19.5518 C   0  0  0  0  0  0  0  0  0  0  0  0
   29.7804  -21.8537  -18.3085 C   0  0  1  0  0  0  0  0  0  0  0  0
   28.6170  -20.9266  -18.3725 C   0  0  0  0  0  0  0  0  0  0  0  0
   27.6233  -21.3375  -19.0229 O   0  0  0  0  0  0  0  0  0  0  0  0
   25.9819  -19.5666  -15.0984 C   0  0  0  0  0  0  0  0  0  0  0  0
   27.1700  -18.6678  -15.1651 C   0  0  2  0  0  0  0  0  0  0  0  0
   27.0597  -17.6844  -13.9724 C   0  0  0  0  0  0  0  0  0  0  0  0
   27.2949  -17.9414  -16.4444 C   0  0  0  0  0  0  0  0  0  0  0  0
   27.5388  -18.6860  -17.6973 C   0  0  2  0  0  0  0  0  0  0  0  0
   28.5593  -19.6527  -17.7670 N   0  0  0  0  0  0  0  0  0  0  0  0
   27.3317  -17.7857  -18.8695 C   0  0  0  0  0  0  0  0  0  0  0  0
   28.4064  -17.7009  -19.7672 O   0  0  0  0  0  0  0  0  0  0  0  0
   26.3410  -17.1428  -19.0992 O   0  0  0  0  0  0  0  0  0  0  0  0
  1  2  1  0
  2  3  2  0
  4  2  1  0
  5  4  1  0
  5  6  1  1
  7  5  1  0
  7  8  2  0
  9  7  1  0
 10  9  1  0
 11 12  1  0
 11 10  1  0
 12 13  1  0
 13  9  1  0
 14 21  1  0
 13 14  1  6
 15 14  2  0
 17 16  1  6
 18 17  1  0
 19 17  1  0
 20 21  1  0
 20 19  1  1
 22 20  1  0
 23 22  1  0
 24 22  2  0
M  END
$$$$
