NPL.pdb
     RDKit          3D

 24 24  0  0  1  0  0  0  0  0999 V2000
   19.1891   -8.9869  -18.9927 N   0  0  0  0  0  0  0  0  0  0  0  0
   20.2166   -8.7365  -18.0551 C   0  0  0  0  0  0  0  0  0  0  0  0
   19.9442   -8.0449  -17.0454 O   0  0  0  0  0  0  0  0  0  0  0  0
   21.6162   -9.2460  -18.1904 C   0  0  0  0  0  0  0  0  0  0  0  0
   21.7330   -9.9842  -19.5005 C   0  0  2  0  0  0  0  0  0  0  0  0
   20.7886  -11.1065  -19.4068 N   0  0  0  0  0  0  0  0  0  0  0  0
   23.0915  -10.4603  -19.8169 C   0  0  0  0  0  0  0  0  0  0  0  0
   23.3478  -11.6929  -19.8679 O   0  0  0  0  0  0  0  0  0  0  0  0
   24.1370   -9.5527  -20.0762 N   0  0  0  0  0  0  0  0  0  0  0  0
   23.9949   -8.1028  -20.1559 C   0  0  0  0  0  0  0  0  0  0  0  0
   24.9980   -7.6772  -21.2221 C   0  0  0  0  0  0  0  0  0  0  0  0
   25.9239   -8.8475  -21.4465 C   0  0  0  0  0  0  0  0  0  0  0  0
   25.5029   -9.8562  -20.3668 C   0  0  1  0  0  0  0  0  0  0  0  0
   26.4529   -9.8006  -19.2214 C   0  0  0  0  0  0  0  0  0  0  0  0
   26.2779   -8.8580  -18.4090 O   0  0  0  0  0  0  0  0  0  0  0  0
   30.6774  -13.4837  -16.4109 C   0  0  0  0  0  0  0  0  0  0  0  0
   29.6913  -12.3705  -16.3004 C   0  0  2  0  0  0  0  0  0  0  0  0
   28.8408  -12.6447  -15.0343 C   0  0  0  0  0  0  0  0  0  0  0  0
   28.8355  -12.2137  -17.4933 C   0  0  0  0  0  0  0  0  0  0  0  0
   28.4078  -10.8669  -17.9253 C   0  0  2  0  0  0  0  0  0  0  0  0
   27.5067  -10.7122  -18.9953 N   0  0  0  0  0  0  0  0  0  0  0  0
   29.5508   -9.9135  -17.8155 C   0  0  0  0  0  0  0  0  0  0  0  0
   29.6744   -9.2530  -16.5841 O   0  0  0  0  0  0  0  0  0  0  0  0
   30.3540   -9.6725  -18.6783 O   0  0  0  0  0  0  0  0  0  0  0  0
  1  2  1  0
  2  3  2  0
  4  2  1  0
  5  4  1  0
  5  6  1  1
  7  5  1  0
  7  8  2  0
  9  7  1  0
 10  9  1  0
 11 12  1  0
 11 10  1  0
 12 13  1  0
 13  9  1  0
 14 21  1  0
 13 14  1  1
 15 14  2  0
 17 16  1  6
 18 17  1  0
 19 17  1  0
 20 21  1  0
 20 19  1  6
 22 20  1  0
 23 22  1  0
 24 22  2  0
M  END
$$$$
