NPL.pdb
     RDKit          3D

 24 24  0  0  1  0  0  0  0  0999 V2000
   16.8011  -11.0798  -17.4424 N   0  0  0  0  0  0  0  0  0  0  0  0
   17.6614  -10.2132  -16.7308 C   0  0  0  0  0  0  0  0  0  0  0  0
   18.6570   -9.7411  -17.3290 O   0  0  0  0  0  0  0  0  0  0  0  0
   17.4599   -9.8208  -15.3017 C   0  0  0  0  0  0  0  0  0  0  0  0
   18.5959  -10.3841  -14.4852 C   0  0  2  0  0  0  0  0  0  0  0  0
   18.4056  -11.8415  -14.4966 N   0  0  0  0  0  0  0  0  0  0  0  0
   18.6728   -9.8708  -13.1057 C   0  0  0  0  0  0  0  0  0  0  0  0
   18.3048  -10.5804  -12.1316 O   0  0  0  0  0  0  0  0  0  0  0  0
   19.1644   -8.5782  -12.8382 N   0  0  0  0  0  0  0  0  0  0  0  0
   19.7642   -7.6836  -13.8223 C   0  0  0  0  0  0  0  0  0  0  0  0
   20.8393   -6.9284  -13.0490 C   0  0  0  0  0  0  0  0  0  0  0  0
   20.5676   -7.1564  -11.5822 C   0  0  0  0  0  0  0  0  0  0  0  0
   19.2319   -7.9156  -11.5738 C   0  0  1  0  0  0  0  0  0  0  0  0
   18.1179   -6.9805  -11.2547 C   0  0  0  0  0  0  0  0  0  0  0  0
   17.7131   -6.2651  -12.2053 O   0  0  0  0  0  0  0  0  0  0  0  0
   13.9547   -6.4293   -6.5355 C   0  0  0  0  0  0  0  0  0  0  0  0
   14.2577   -6.3411   -7.9930 C   0  0  2  0  0  0  0  0  0  0  0  0
   13.1725   -7.1659   -8.7303 C   0  0  0  0  0  0  0  0  0  0  0  0
   15.6131   -6.8068   -8.3477 C   0  0  0  0  0  0  0  0  0  0  0  0
   16.2519   -6.3424   -9.5966 C   0  0  2  0  0  0  0  0  0  0  0  0
   17.5044   -6.8496   -9.9902 N   0  0  0  0  0  0  0  0  0  0  0  0
   15.9807   -4.8880   -9.7931 C   0  0  0  0  0  0  0  0  0  0  0  0
   14.8579   -4.5800  -10.5757 O   0  0  0  0  0  0  0  0  0  0  0  0
   16.6329   -3.9817   -9.3449 O   0  0  0  0  0  0  0  0  0  0  0  0
  1  2  1  0
  2  3  2  0
  4  2  1  0
  5  4  1  0
  5  6  1  1
  7  5  1  0
  7  8  2  0
  9  7  1  0
 10  9  1  0
 11 12  1  0
 11 10  1  0
 12 13  1  0
 13  9  1  0
 14 21  1  0
 13 14  1  6
 15 14  2  0
 17 16  1  1
 18 17  1  0
 19 17  1  0
 20 21  1  0
 20 19  1  1
 22 20  1  0
 23 22  1  0
 24 22  2  0
M  END
$$$$
