MRR.pdb
     RDKit          3D

 31 30  0  0  1  0  0  0  0  0999 V2000
   15.0599  -28.3542   -0.3287 C   0  0  0  0  0  0  0  0  0  0  0  0
   15.9073  -29.9552   -0.5746 S   0  0  0  0  0  0  0  0  0  0  0  0
   17.4659  -29.5877   -1.4493 C   0  0  0  0  0  0  0  0  0  0  0  0
   17.4762  -28.1994   -1.9979 C   0  0  0  0  0  0  0  0  0  0  0  0
   18.7495  -27.8252   -2.7205 C   0  0  2  0  0  0  0  0  0  0  0  0
   19.6442  -27.2898   -1.7195 N   0  0  0  0  0  0  0  0  0  0  0  0
   18.4196  -26.7834   -3.7376 C   0  0  0  0  0  0  0  0  0  0  0  0
   18.3838  -25.5609   -3.4574 O   0  0  0  0  0  0  0  0  0  0  0  0
   19.6917  -26.2167  -12.1361 N   0  0  0  0  0  0  0  0  0  0  0  0
   20.0636  -26.9606  -10.9914 C   0  0  0  0  0  0  0  0  0  0  0  0
   21.1936  -27.5629  -10.9492 N   0  0  0  0  0  0  0  0  0  0  0  0
   19.1947  -27.0496   -9.8808 N   0  0  0  0  0  0  0  0  0  0  0  0
   17.9899  -26.2652   -9.8672 C   0  0  0  0  0  0  0  0  0  0  0  0
   17.7567  -25.6704   -8.5080 C   0  0  0  0  0  0  0  0  0  0  0  0
   18.0152  -26.7120   -7.4609 C   0  0  0  0  0  0  0  0  0  0  0  0
   17.8390  -26.2030   -6.0445 C   0  0  2  0  0  0  0  0  0  0  0  0
   18.1349  -27.2178   -5.0845 N   0  0  0  0  0  0  0  0  0  0  0  0
   16.3986  -25.7755   -5.9564 C   0  0  0  0  0  0  0  0  0  0  0  0
   15.4750  -26.6522   -5.9965 O   0  0  0  0  0  0  0  0  0  0  0  0
   21.5213  -28.0934  -10.1188 N   0  0  0  0  0  0  0  0  0  0  0  0
   13.1748  -20.4379   -0.1869 C   0  0  0  0  0  0  0  0  0  0  0  0
   12.0498  -20.7078   -1.0290 N   0  0  0  0  0  0  0  0  0  0  0  0
   10.8675  -20.4567   -0.6433 N   0  0  0  0  0  0  0  0  0  0  0  0
   12.2963  -21.2628   -2.3007 C   0  0  0  0  0  0  0  0  0  0  0  0
   13.6006  -21.8971   -2.6046 C   0  0  0  0  0  0  0  0  0  0  0  0
   13.5222  -22.4898   -3.9625 C   0  0  0  0  0  0  0  0  0  0  0  0
   14.6651  -23.2254   -4.4681 C   0  0  1  0  0  0  0  0  0  0  0  0
   14.6910  -23.9381   -5.7763 N   0  0  0  0  0  0  0  0  0  0  0  0
   16.1273  -24.4133   -5.8322 C   0  0  0  0  0  0  0  0  0  0  0  0
   14.6277  -22.9832   -6.9121 O   0  0  0  0  0  0  0  0  0  0  0  0
   15.5913  -22.4023   -7.4405 O   0  0  0  0  0  0  0  0  0  0  0  0
  1  2  1  0
  2  3  1  0
  4  3  1  0
  5  4  1  0
  5  6  1  1
  7  8  2  0
  7  5  1  0
  9 10  1  0
 10 12  1  0
 11 10  2  0
 12 13  1  0
 13 14  1  0
 14 15  1  0
 16 15  1  6
 16 17  1  0
 17  7  1  0
 18 19  2  0
 18 16  1  0
 20 21  1  0
 21 22  2  0
 23 21  1  0
 23 24  1  0
 24 25  1  0
 25 26  1  0
 27 26  1  1
 27 28  1  0
 28 18  1  0
 29 27  1  0
 30 29  2  0
 31 29  1  0
M  END
$$$$
