MRR.pdb
     RDKit          3D

 31 30  0  0  1  0  0  0  0  0999 V2000
   28.5395  -17.9348  -19.2686 C   0  0  0  0  0  0  0  0  0  0  0  0
   27.5317  -19.0151  -18.1920 S   0  0  0  0  0  0  0  0  0  0  0  0
   28.0473  -18.6640  -16.4772 C   0  0  0  0  0  0  0  0  0  0  0  0
   27.2560  -19.4567  -15.4903 C   0  0  0  0  0  0  0  0  0  0  0  0
   27.9709  -20.6758  -14.9551 C   0  0  2  0  0  0  0  0  0  0  0  0
   27.9421  -21.6620  -16.0113 N   0  0  0  0  0  0  0  0  0  0  0  0
   27.2232  -21.1676  -13.7602 C   0  0  0  0  0  0  0  0  0  0  0  0
   26.1711  -21.8440  -13.8596 O   0  0  0  0  0  0  0  0  0  0  0  0
   27.8558  -18.8442   -5.1188 N   0  0  0  0  0  0  0  0  0  0  0  0
   27.0508  -20.0051   -5.1985 C   0  0  0  0  0  0  0  0  0  0  0  0
   26.7565  -20.6632   -4.1394 N   0  0  0  0  0  0  0  0  0  0  0  0
   26.5617  -20.4540   -6.4457 N   0  0  0  0  0  0  0  0  0  0  0  0
   27.3516  -20.2407   -7.6279 C   0  0  0  0  0  0  0  0  0  0  0  0
   26.6287  -20.7346   -8.8481 C   0  0  0  0  0  0  0  0  0  0  0  0
   27.5118  -20.5678  -10.0482 C   0  0  0  0  0  0  0  0  0  0  0  0
   26.8678  -21.0242  -11.3417 C   0  0  2  0  0  0  0  0  0  0  0  0
   27.7450  -20.8432  -12.4538 N   0  0  0  0  0  0  0  0  0  0  0  0
   25.6296  -20.1806  -11.4838 C   0  0  0  0  0  0  0  0  0  0  0  0
   25.7362  -18.9438  -11.7709 O   0  0  0  0  0  0  0  0  0  0  0  0
   26.1719  -21.5214   -4.1508 N   0  0  0  0  0  0  0  0  0  0  0  0
   20.9385  -21.3537  -17.2657 C   0  0  0  0  0  0  0  0  0  0  0  0
   20.3892  -20.0564  -17.0153 N   0  0  0  0  0  0  0  0  0  0  0  0
   19.3109  -19.6832  -17.5698 N   0  0  0  0  0  0  0  0  0  0  0  0
   21.0848  -19.2049  -16.1335 C   0  0  0  0  0  0  0  0  0  0  0  0
   22.3344  -19.6587  -15.4788 C   0  0  0  0  0  0  0  0  0  0  0  0
   22.0951  -19.7194  -14.0158 C   0  0  0  0  0  0  0  0  0  0  0  0
   23.2100  -20.0247  -13.1401 C   0  0  1  0  0  0  0  0  0  0  0  0
   23.1235  -20.0550  -11.6529 N   0  0  0  0  0  0  0  0  0  0  0  0
   24.3932  -20.7966  -11.2924 C   0  0  0  0  0  0  0  0  0  0  0  0
   22.0668  -20.9917  -11.1930 O   0  0  0  0  0  0  0  0  0  0  0  0
   22.2164  -22.1960  -10.9237 O   0  0  0  0  0  0  0  0  0  0  0  0
  1  2  1  0
  2  3  1  0
  4  3  1  0
  5  4  1  0
  5  6  1  6
  7  8  2  0
  7  5  1  0
  9 10  1  0
 10 12  1  0
 11 10  2  0
 12 13  1  0
 13 14  1  0
 14 15  1  0
 16 15  1  1
 16 17  1  0
 17  7  1  0
 18 19  2  0
 18 16  1  0
 20 21  1  0
 21 22  2  0
 23 21  1  0
 23 24  1  0
 24 25  1  0
 25 26  1  0
 27 26  1  1
 27 28  1  0
 28 18  1  0
 29 27  1  0
 30 29  2  0
 31 29  1  0
M  END
$$$$
