MRR.pdb
     RDKit          3D

 31 30  0  0  1  0  0  0  0  0999 V2000
   30.1907  -20.3937   -5.7097 C   0  0  0  0  0  0  0  0  0  0  0  0
   28.7053  -21.2718   -5.1063 S   0  0  0  0  0  0  0  0  0  0  0  0
   27.3906  -20.0166   -4.9461 C   0  0  0  0  0  0  0  0  0  0  0  0
   26.4412  -20.0625   -6.0971 C   0  0  0  0  0  0  0  0  0  0  0  0
   27.0470  -19.6547   -7.4201 C   0  0  2  0  0  0  0  0  0  0  0  0
   27.6229  -18.3444   -7.2183 N   0  0  0  0  0  0  0  0  0  0  0  0
   25.9536  -19.5945   -8.4348 C   0  0  0  0  0  0  0  0  0  0  0  0
   25.0783  -18.6956   -8.4243 O   0  0  0  0  0  0  0  0  0  0  0  0
   23.6073  -22.1886  -15.0580 N   0  0  0  0  0  0  0  0  0  0  0  0
   23.6525  -20.9342  -15.7110 C   0  0  0  0  0  0  0  0  0  0  0  0
   22.7467  -20.6116  -16.5577 N   0  0  0  0  0  0  0  0  0  0  0  0
   24.6963  -20.0216  -15.4389 N   0  0  0  0  0  0  0  0  0  0  0  0
   25.5513  -20.2500  -14.3059 C   0  0  0  0  0  0  0  0  0  0  0  0
   24.7682  -20.1856  -13.0259 C   0  0  0  0  0  0  0  0  0  0  0  0
   25.6990  -20.3762  -11.8660 C   0  0  0  0  0  0  0  0  0  0  0  0
   24.9932  -20.4308  -10.5262 C   0  0  2  0  0  0  0  0  0  0  0  0
   25.9196  -20.6150   -9.4553 N   0  0  0  0  0  0  0  0  0  0  0  0
   24.0436  -21.5939  -10.6290 C   0  0  0  0  0  0  0  0  0  0  0  0
   24.5021  -22.7753  -10.7600 O   0  0  0  0  0  0  0  0  0  0  0  0
   22.7052  -19.6800  -17.0145 N   0  0  0  0  0  0  0  0  0  0  0  0
   17.1925  -24.8612   -8.3389 C   0  0  0  0  0  0  0  0  0  0  0  0
   18.0455  -24.6431   -7.2109 N   0  0  0  0  0  0  0  0  0  0  0  0
   18.1426  -25.5064   -6.2863 N   0  0  0  0  0  0  0  0  0  0  0  0
   18.7739  -23.4378   -7.1584 C   0  0  0  0  0  0  0  0  0  0  0  0
   18.6313  -22.4254   -8.2312 C   0  0  0  0  0  0  0  0  0  0  0  0
   19.4809  -22.8396   -9.3747 C   0  0  0  0  0  0  0  0  0  0  0  0
   20.7508  -22.1693   -9.5773 C   0  0  1  0  0  0  0  0  0  0  0  0
   21.6861  -22.4670  -10.6983 N   0  0  0  0  0  0  0  0  0  0  0  0
   22.6757  -21.3278  -10.5756 C   0  0  0  0  0  0  0  0  0  0  0  0
   21.0533  -22.1979  -12.0147 O   0  0  0  0  0  0  0  0  0  0  0  0
   20.6268  -23.0485  -12.8145 O   0  0  0  0  0  0  0  0  0  0  0  0
  1  2  1  0
  2  3  1  0
  4  3  1  0
  5  4  1  0
  5  6  1  1
  7  8  2  0
  7  5  1  0
  9 10  1  0
 10 12  1  0
 11 10  2  0
 12 13  1  0
 13 14  1  0
 14 15  1  0
 16 15  1  6
 16 17  1  0
 17  7  1  0
 18 19  2  0
 18 16  1  0
 20 21  1  0
 21 22  2  0
 23 21  1  0
 23 24  1  0
 24 25  1  0
 25 26  1  0
 27 26  1  1
 27 28  1  0
 28 18  1  0
 29 27  1  0
 30 29  2  0
 31 29  1  0
M  END
$$$$
