MRR.pdb
     RDKit          3D

 31 30  0  0  1  0  0  0  0  0999 V2000
   26.8725  -18.7612   -5.3510 C   0  0  0  0  0  0  0  0  0  0  0  0
   28.4360  -19.3650   -6.0806 S   0  0  0  0  0  0  0  0  0  0  0  0
   27.9747  -20.5723   -7.3687 C   0  0  0  0  0  0  0  0  0  0  0  0
   26.9322  -20.0270   -8.2876 C   0  0  0  0  0  0  0  0  0  0  0  0
   26.2214  -21.0739   -9.1134 C   0  0  2  0  0  0  0  0  0  0  0  0
   27.2526  -21.8935   -9.7084 N   0  0  0  0  0  0  0  0  0  0  0  0
   25.4324  -20.3765  -10.1716 C   0  0  0  0  0  0  0  0  0  0  0  0
   24.4833  -19.6024   -9.8993 O   0  0  0  0  0  0  0  0  0  0  0  0
   26.8369  -20.8279  -17.0495 N   0  0  0  0  0  0  0  0  0  0  0  0
   27.9904  -21.0462  -16.2598 C   0  0  0  0  0  0  0  0  0  0  0  0
   28.6870  -22.1107  -16.4108 N   0  0  0  0  0  0  0  0  0  0  0  0
   28.3890  -20.0943  -15.2946 N   0  0  0  0  0  0  0  0  0  0  0  0
   27.5947  -18.9109  -15.1057 C   0  0  0  0  0  0  0  0  0  0  0  0
   26.8988  -18.9431  -13.7751 C   0  0  0  0  0  0  0  0  0  0  0  0
   25.7111  -19.8543  -13.8596 C   0  0  0  0  0  0  0  0  0  0  0  0
   24.9689  -20.0044  -12.5470 C   0  0  2  0  0  0  0  0  0  0  0  0
   25.7893  -20.6142  -11.5501 N   0  0  0  0  0  0  0  0  0  0  0  0
   23.7742  -20.8622  -12.8665 C   0  0  0  0  0  0  0  0  0  0  0  0
   23.8116  -22.1131  -12.6276 O   0  0  0  0  0  0  0  0  0  0  0  0
   29.4953  -22.3488  -15.8038 N   0  0  0  0  0  0  0  0  0  0  0  0
   18.5892  -24.7295   -9.8950 C   0  0  0  0  0  0  0  0  0  0  0  0
   19.1211  -23.8061   -8.9400 N   0  0  0  0  0  0  0  0  0  0  0  0
   19.2452  -24.1256   -7.7185 N   0  0  0  0  0  0  0  0  0  0  0  0
   19.5019  -22.5292   -9.3989 C   0  0  0  0  0  0  0  0  0  0  0  0
   19.3659  -22.1731  -10.8309 C   0  0  0  0  0  0  0  0  0  0  0  0
   19.8515  -20.7827  -11.0105 C   0  0  0  0  0  0  0  0  0  0  0  0
   21.0938  -20.5662  -11.7267 C   0  0  1  0  0  0  0  0  0  0  0  0
   21.2793  -20.8298  -13.1814 N   0  0  0  0  0  0  0  0  0  0  0  0
   22.6543  -20.2432  -13.4208 C   0  0  0  0  0  0  0  0  0  0  0  0
   20.4106  -19.9499  -14.0041 O   0  0  0  0  0  0  0  0  0  0  0  0
   19.3136  -20.2556  -14.5023 O   0  0  0  0  0  0  0  0  0  0  0  0
  1  2  1  0
  2  3  1  0
  4  3  1  0
  5  4  1  0
  5  6  1  6
  7  8  2  0
  7  5  1  0
  9 10  1  0
 10 12  1  0
 11 10  2  0
 12 13  1  0
 13 14  1  0
 14 15  1  0
 16 15  1  6
 16 17  1  0
 17  7  1  0
 18 19  2  0
 18 16  1  0
 20 21  1  0
 21 22  2  0
 23 21  1  0
 23 24  1  0
 24 25  1  0
 25 26  1  0
 27 26  1  1
 27 28  1  0
 28 18  1  0
 29 27  1  0
 30 29  2  0
 31 29  1  0
M  END
$$$$
