MRR.pdb
     RDKit          3D

 31 30  0  0  1  0  0  0  0  0999 V2000
   28.9657  -19.2465   -4.7983 C   0  0  0  0  0  0  0  0  0  0  0  0
   27.2792  -19.3134   -5.5004 S   0  0  0  0  0  0  0  0  0  0  0  0
   27.3004  -20.6172   -6.7768 C   0  0  0  0  0  0  0  0  0  0  0  0
   27.3111  -20.0407   -8.1537 C   0  0  0  0  0  0  0  0  0  0  0  0
   26.1395  -20.4579   -9.0121 C   0  0  2  0  0  0  0  0  0  0  0  0
   26.1050  -21.9025   -8.9810 N   0  0  0  0  0  0  0  0  0  0  0  0
   26.3829  -19.9707  -10.4021 C   0  0  0  0  0  0  0  0  0  0  0  0
   26.2463  -18.7655  -10.7233 O   0  0  0  0  0  0  0  0  0  0  0  0
   31.6318  -20.4802  -11.6260 N   0  0  0  0  0  0  0  0  0  0  0  0
   31.9430  -21.8602  -11.6487 C   0  0  0  0  0  0  0  0  0  0  0  0
   32.8442  -22.3340  -10.8710 N   0  0  0  0  0  0  0  0  0  0  0  0
   31.2653  -22.7335  -12.5288 N   0  0  0  0  0  0  0  0  0  0  0  0
   30.2308  -22.2101  -13.3790 C   0  0  0  0  0  0  0  0  0  0  0  0
   29.1437  -21.5705  -12.5636 C   0  0  0  0  0  0  0  0  0  0  0  0
   28.0400  -21.1230  -13.4743 C   0  0  0  0  0  0  0  0  0  0  0  0
   26.8789  -20.4767  -12.7459 C   0  0  2  0  0  0  0  0  0  0  0  0
   26.7889  -20.9351  -11.3966 N   0  0  0  0  0  0  0  0  0  0  0  0
   25.6562  -20.8632  -13.5336 C   0  0  0  0  0  0  0  0  0  0  0  0
   25.1729  -22.0362  -13.4164 O   0  0  0  0  0  0  0  0  0  0  0  0
   33.1458  -23.3274  -10.8936 N   0  0  0  0  0  0  0  0  0  0  0  0
   19.1822  -21.5936  -13.5913 C   0  0  0  0  0  0  0  0  0  0  0  0
   19.3946  -20.9026  -12.3564 N   0  0  0  0  0  0  0  0  0  0  0  0
   19.0355  -21.4110  -11.2509 N   0  0  0  0  0  0  0  0  0  0  0  0
   20.0148  -19.6380  -12.4067 C   0  0  0  0  0  0  0  0  0  0  0  0
   20.4152  -19.0478  -13.7056 C   0  0  0  0  0  0  0  0  0  0  0  0
   21.4039  -19.9536  -14.3407 C   0  0  0  0  0  0  0  0  0  0  0  0
   22.7935  -19.5417  -14.3913 C   0  0  2  0  0  0  0  0  0  0  0  0
   23.8489  -20.2478  -15.1707 N   0  0  0  0  0  0  0  0  0  0  0  0
   25.0907  -19.9056  -14.3751 C   0  0  0  0  0  0  0  0  0  0  0  0
   24.1058  -19.5708  -16.4674 O   0  0  0  0  0  0  0  0  0  0  0  0
   23.7123  -19.9466  -17.5851 O   0  0  0  0  0  0  0  0  0  0  0  0
  1  2  1  0
  2  3  1  0
  4  3  1  0
  5  4  1  0
  5  6  1  6
  7  8  2  0
  7  5  1  0
  9 10  1  0
 10 12  1  0
 11 10  2  0
 12 13  1  0
 13 14  1  0
 14 15  1  0
 16 15  1  6
 16 17  1  0
 17  7  1  0
 18 19  2  0
 18 16  1  0
 20 21  1  0
 21 22  2  0
 23 21  1  0
 23 24  1  0
 24 25  1  0
 25 26  1  0
 27 26  1  1
 27 28  1  0
 28 18  1  0
 29 27  1  0
 30 29  2  0
 31 29  1  0
M  END
$$$$
