MRR.pdb
     RDKit          3D

 31 30  0  0  1  0  0  0  0  0999 V2000
   28.0175  -18.3678   -5.6173 C   0  0  0  0  0  0  0  0  0  0  0  0
   28.6985  -18.7762   -7.2639 S   0  0  0  0  0  0  0  0  0  0  0  0
   27.7290  -20.1898   -7.8896 C   0  0  0  0  0  0  0  0  0  0  0  0
   26.4414  -19.7475   -8.5018 C   0  0  0  0  0  0  0  0  0  0  0  0
   25.5689  -20.8763   -8.9999 C   0  0  2  0  0  0  0  0  0  0  0  0
   26.4649  -21.8931   -9.5024 N   0  0  0  0  0  0  0  0  0  0  0  0
   24.7071  -20.3495  -10.0992 C   0  0  0  0  0  0  0  0  0  0  0  0
   23.9741  -19.3418   -9.9517 O   0  0  0  0  0  0  0  0  0  0  0  0
   28.6532  -20.3005  -14.6457 N   0  0  0  0  0  0  0  0  0  0  0  0
   28.3214  -19.0665  -15.2532 C   0  0  0  0  0  0  0  0  0  0  0  0
   29.2368  -18.2140  -15.5302 N   0  0  0  0  0  0  0  0  0  0  0  0
   26.9776  -18.7578  -15.5619 N   0  0  0  0  0  0  0  0  0  0  0  0
   25.9588  -19.7448  -15.3281 C   0  0  0  0  0  0  0  0  0  0  0  0
   25.4507  -19.6622  -13.9171 C   0  0  0  0  0  0  0  0  0  0  0  0
   24.3324  -20.6442  -13.7354 C   0  0  0  0  0  0  0  0  0  0  0  0
   23.7543  -20.6508  -12.3346 C   0  0  2  0  0  0  0  0  0  0  0  0
   24.7320  -21.0371  -11.3682 N   0  0  0  0  0  0  0  0  0  0  0  0
   22.6185  -21.6371  -12.3823 C   0  0  0  0  0  0  0  0  0  0  0  0
   22.8587  -22.8840  -12.2790 O   0  0  0  0  0  0  0  0  0  0  0  0
   29.0519  -17.3339  -16.0495 N   0  0  0  0  0  0  0  0  0  0  0  0
   19.1696  -25.1628   -6.6229 C   0  0  0  0  0  0  0  0  0  0  0  0
   18.1088  -25.4064   -7.5519 N   0  0  0  0  0  0  0  0  0  0  0  0
   17.1432  -26.1746   -7.2570 N   0  0  0  0  0  0  0  0  0  0  0  0
   18.1709  -24.7667   -8.8061 C   0  0  0  0  0  0  0  0  0  0  0  0
   19.3143  -23.8875   -9.1463 C   0  0  0  0  0  0  0  0  0  0  0  0
   19.1720  -23.4700  -10.5629 C   0  0  0  0  0  0  0  0  0  0  0  0
   20.1628  -22.5743  -11.1276 C   0  0  1  0  0  0  0  0  0  0  0  0
   20.1500  -22.0921  -12.5373 N   0  0  0  0  0  0  0  0  0  0  0  0
   21.3258  -21.1384  -12.5403 C   0  0  0  0  0  0  0  0  0  0  0  0
   19.0025  -21.1827  -12.7860 O   0  0  0  0  0  0  0  0  0  0  0  0
   17.8203  -21.5212  -12.9675 O   0  0  0  0  0  0  0  0  0  0  0  0
  1  2  1  0
  2  3  1  0
  4  3  1  0
  5  4  1  0
  5  6  1  6
  7  8  2  0
  7  5  1  0
  9 10  1  0
 10 12  1  0
 11 10  2  0
 12 13  1  0
 13 14  1  0
 14 15  1  0
 16 15  1  6
 16 17  1  0
 17  7  1  0
 18 19  2  0
 18 16  1  0
 20 21  1  0
 21 22  2  0
 23 21  1  0
 23 24  1  0
 24 25  1  0
 25 26  1  0
 27 26  1  6
 27 28  1  0
 28 18  1  0
 29 27  1  0
 30 29  2  0
 31 29  1  0
M  END
$$$$
