MRR.pdb
     RDKit          3D

 31 30  0  0  1  0  0  0  0  0999 V2000
   26.1044  -25.0714  -15.7611 C   0  0  0  0  0  0  0  0  0  0  0  0
   27.0356  -23.5626  -16.2062 S   0  0  0  0  0  0  0  0  0  0  0  0
   26.7964  -22.3826  -14.8351 C   0  0  0  0  0  0  0  0  0  0  0  0
   25.3565  -22.2543  -14.4629 C   0  0  0  0  0  0  0  0  0  0  0  0
   25.0742  -21.1928  -13.4251 C   0  0  2  0  0  0  0  0  0  0  0  0
   25.8046  -21.5778  -12.2387 N   0  0  0  0  0  0  0  0  0  0  0  0
   23.6060  -21.1835  -13.1550 C   0  0  0  0  0  0  0  0  0  0  0  0
   23.1289  -21.4837  -12.0340 O   0  0  0  0  0  0  0  0  0  0  0  0
   18.3142  -15.4165  -15.6301 N   0  0  0  0  0  0  0  0  0  0  0  0
   19.4324  -15.9770  -16.2915 C   0  0  0  0  0  0  0  0  0  0  0  0
   20.1748  -15.2484  -17.0395 N   0  0  0  0  0  0  0  0  0  0  0  0
   19.7448  -17.3462  -16.1366 N   0  0  0  0  0  0  0  0  0  0  0  0
   18.9013  -18.1703  -15.3142 C   0  0  0  0  0  0  0  0  0  0  0  0
   19.7095  -18.8839  -14.2687 C   0  0  0  0  0  0  0  0  0  0  0  0
   20.5674  -19.9213  -14.9289 C   0  0  0  0  0  0  0  0  0  0  0  0
   21.3221  -20.7960  -13.9483 C   0  0  2  0  0  0  0  0  0  0  0  0
   22.7210  -20.8135  -14.2339 N   0  0  0  0  0  0  0  0  0  0  0  0
   20.7197  -22.1669  -14.0997 C   0  0  0  0  0  0  0  0  0  0  0  0
   21.0852  -22.9156  -15.0636 O   0  0  0  0  0  0  0  0  0  0  0  0
   21.0097  -15.6147  -17.5367 N   0  0  0  0  0  0  0  0  0  0  0  0
   16.6169  -24.2089   -7.0161 C   0  0  0  0  0  0  0  0  0  0  0  0
   17.9219  -24.7885   -7.1088 N   0  0  0  0  0  0  0  0  0  0  0  0
   18.4693  -25.3345   -6.1029 N   0  0  0  0  0  0  0  0  0  0  0  0
   18.5812  -24.7327   -8.3532 C   0  0  0  0  0  0  0  0  0  0  0  0
   17.8615  -24.2775   -9.5660 C   0  0  0  0  0  0  0  0  0  0  0  0
   18.8164  -24.2852  -10.7014 C   0  0  0  0  0  0  0  0  0  0  0  0
   18.3183  -23.9941  -12.0319 C   0  0  2  0  0  0  0  0  0  0  0  0
   19.1682  -23.9570  -13.2553 N   0  0  0  0  0  0  0  0  0  0  0  0
   19.7691  -22.5705  -13.1626 C   0  0  0  0  0  0  0  0  0  0  0  0
   18.3402  -23.8631  -14.4846 O   0  0  0  0  0  0  0  0  0  0  0  0
   18.1668  -24.7613  -15.3262 O   0  0  0  0  0  0  0  0  0  0  0  0
  1  2  1  0
  2  3  1  0
  4  3  1  0
  5  4  1  0
  5  6  1  1
  7  8  2  0
  7  5  1  0
  9 10  1  0
 10 12  1  0
 11 10  2  0
 12 13  1  0
 13 14  1  0
 14 15  1  0
 16 15  1  6
 16 17  1  0
 17  7  1  0
 18 19  2  0
 18 16  1  0
 20 21  1  0
 21 22  2  0
 23 21  1  0
 23 24  1  0
 24 25  1  0
 25 26  1  0
 27 26  1  1
 27 28  1  0
 28 18  1  0
 29 27  1  0
 30 29  2  0
 31 29  1  0
M  END
$$$$
