MRR.pdb
     RDKit          3D

 31 30  0  0  1  0  0  0  0  0999 V2000
   28.9671  -15.7993  -17.8301 C   0  0  0  0  0  0  0  0  0  0  0  0
   28.1504  -14.2215  -17.3998 S   0  0  0  0  0  0  0  0  0  0  0  0
   27.1961  -14.5307  -15.8756 C   0  0  0  0  0  0  0  0  0  0  0  0
   26.8392  -15.9730  -15.7315 C   0  0  0  0  0  0  0  0  0  0  0  0
   25.4634  -16.3281  -16.2460 C   0  0  2  0  0  0  0  0  0  0  0  0
   24.5206  -15.6104  -15.4182 N   0  0  0  0  0  0  0  0  0  0  0  0
   25.2752  -17.8014  -16.0957 C   0  0  0  0  0  0  0  0  0  0  0  0
   25.8841  -18.6314  -16.8131 O   0  0  0  0  0  0  0  0  0  0  0  0
   27.3913  -21.1936   -9.5543 N   0  0  0  0  0  0  0  0  0  0  0  0
   26.1054  -20.6037   -9.5734 C   0  0  0  0  0  0  0  0  0  0  0  0
   25.4277  -20.4921   -8.4919 N   0  0  0  0  0  0  0  0  0  0  0  0
   25.5517  -20.1306  -10.7842 N   0  0  0  0  0  0  0  0  0  0  0  0
   26.3691  -20.1029  -11.9666 C   0  0  0  0  0  0  0  0  0  0  0  0
   25.6794  -19.3583  -13.0738 C   0  0  0  0  0  0  0  0  0  0  0  0
   24.9429  -20.3335  -13.9424 C   0  0  0  0  0  0  0  0  0  0  0  0
   24.1145  -19.6733  -15.0260 C   0  0  2  0  0  0  0  0  0  0  0  0
   24.3565  -18.2673  -15.0843 N   0  0  0  0  0  0  0  0  0  0  0  0
   22.6840  -19.9634  -14.6592 C   0  0  0  0  0  0  0  0  0  0  0  0
   22.0430  -19.1485  -13.9188 O   0  0  0  0  0  0  0  0  0  0  0  0
   24.4601  -20.1159   -8.4668 N   0  0  0  0  0  0  0  0  0  0  0  0
   21.3500  -27.9987  -13.9959 C   0  0  0  0  0  0  0  0  0  0  0  0
   21.8410  -27.0012  -14.8967 N   0  0  0  0  0  0  0  0  0  0  0  0
   22.6936  -27.2887  -15.7910 N   0  0  0  0  0  0  0  0  0  0  0  0
   21.3482  -25.6880  -14.7585 C   0  0  0  0  0  0  0  0  0  0  0  0
   20.3402  -25.3683  -13.7204 C   0  0  0  0  0  0  0  0  0  0  0  0
   20.0084  -23.9261  -13.8257 C   0  0  0  0  0  0  0  0  0  0  0  0
   20.9681  -23.0346  -14.4480 C   0  0  1  0  0  0  0  0  0  0  0  0
   20.7517  -21.5730  -14.6407 N   0  0  0  0  0  0  0  0  0  0  0  0
   22.1067  -21.1329  -15.1530 C   0  0  0  0  0  0  0  0  0  0  0  0
   20.6590  -20.8652  -13.3384 O   0  0  0  0  0  0  0  0  0  0  0  0
   21.6121  -20.5054  -12.6261 O   0  0  0  0  0  0  0  0  0  0  0  0
  1  2  1  0
  2  3  1  0
  4  3  1  0
  5  4  1  0
  5  6  1  1
  7  8  2  0
  7  5  1  0
  9 10  1  0
 10 12  1  0
 11 10  2  0
 12 13  1  0
 13 14  1  0
 14 15  1  0
 16 15  1  1
 16 17  1  0
 17  7  1  0
 18 19  2  0
 18 16  1  0
 20 21  1  0
 21 22  2  0
 23 21  1  0
 23 24  1  0
 24 25  1  0
 25 26  1  0
 27 26  1  6
 27 28  1  0
 28 18  1  0
 29 27  1  0
 30 29  2  0
 31 29  1  0
M  END
$$$$
