MRR.pdb
     RDKit          3D

 31 30  0  0  1  0  0  0  0  0999 V2000
   29.0665  -18.8077   -4.7151 C   0  0  0  0  0  0  0  0  0  0  0  0
   27.5404  -19.5915   -4.0838 S   0  0  0  0  0  0  0  0  0  0  0  0
   26.6697  -20.2738   -5.5350 C   0  0  0  0  0  0  0  0  0  0  0  0
   26.6333  -19.2990   -6.6649 C   0  0  0  0  0  0  0  0  0  0  0  0
   25.9008  -19.7938   -7.8904 C   0  0  2  0  0  0  0  0  0  0  0  0
   25.4909  -21.1493   -7.6010 N   0  0  0  0  0  0  0  0  0  0  0  0
   26.8498  -19.7694   -9.0426 C   0  0  0  0  0  0  0  0  0  0  0  0
   26.9712  -18.7687   -9.7898 O   0  0  0  0  0  0  0  0  0  0  0  0
   31.8994  -24.6875  -13.4631 N   0  0  0  0  0  0  0  0  0  0  0  0
   32.9733  -23.9385  -12.9268 C   0  0  0  0  0  0  0  0  0  0  0  0
   34.1811  -24.3386  -13.0774 N   0  0  0  0  0  0  0  0  0  0  0  0
   32.7287  -22.7407  -12.2184 N   0  0  0  0  0  0  0  0  0  0  0  0
   31.7908  -22.7484  -11.1287 C   0  0  0  0  0  0  0  0  0  0  0  0
   30.5978  -21.8933  -11.4464 C   0  0  0  0  0  0  0  0  0  0  0  0
   29.6853  -21.8551  -10.2574 C   0  0  0  0  0  0  0  0  0  0  0  0
   28.5018  -20.9250  -10.4322 C   0  0  2  0  0  0  0  0  0  0  0  0
   27.6466  -20.9477   -9.2890 N   0  0  0  0  0  0  0  0  0  0  0  0
   27.7849  -21.4265  -11.6569 C   0  0  0  0  0  0  0  0  0  0  0  0
   27.3719  -22.6310  -11.6993 O   0  0  0  0  0  0  0  0  0  0  0  0
   34.9991  -23.8241  -12.6973 N   0  0  0  0  0  0  0  0  0  0  0  0
   21.9522  -20.6285  -16.6825 C   0  0  0  0  0  0  0  0  0  0  0  0
   21.5224  -21.0371  -15.3803 N   0  0  0  0  0  0  0  0  0  0  0  0
   20.5908  -21.8858  -15.2341 N   0  0  0  0  0  0  0  0  0  0  0  0
   22.1660  -20.4659  -14.2642 C   0  0  0  0  0  0  0  0  0  0  0  0
   23.2490  -19.4712  -14.4480 C   0  0  0  0  0  0  0  0  0  0  0  0
   24.4998  -20.2023  -14.7676 C   0  0  0  0  0  0  0  0  0  0  0  0
   25.5284  -20.3003  -13.7500 C   0  0  1  0  0  0  0  0  0  0  0  0
   26.8366  -20.9864  -13.9442 N   0  0  0  0  0  0  0  0  0  0  0  0
   27.5977  -20.5375  -12.7148 C   0  0  0  0  0  0  0  0  0  0  0  0
   27.6146  -20.3629  -15.0449 O   0  0  0  0  0  0  0  0  0  0  0  0
   28.1385  -19.2358  -15.0300 O   0  0  0  0  0  0  0  0  0  0  0  0
  1  2  1  0
  2  3  1  0
  4  3  1  0
  5  4  1  0
  5  6  1  1
  7  8  2  0
  7  5  1  0
  9 10  1  0
 10 12  1  0
 11 10  2  0
 12 13  1  0
 13 14  1  0
 14 15  1  0
 16 15  1  1
 16 17  1  0
 17  7  1  0
 18 19  2  0
 18 16  1  0
 20 21  1  0
 21 22  2  0
 23 21  1  0
 23 24  1  0
 24 25  1  0
 25 26  1  0
 27 26  1  1
 27 28  1  0
 28 18  1  0
 29 27  1  0
 30 29  2  0
 31 29  1  0
M  END
$$$$
