VIF.pdb
     RDKit          3D

 27 27  0  0  1  0  0  0  0  0999 V2000
   23.9869  -18.3914  -16.7622 C   0  0  0  0  0  0  0  0  0  0  0  0
   25.3198  -17.6679  -16.7687 C   0  0  2  0  0  0  0  0  0  0  0  0
   25.3186  -16.5907  -17.8320 C   0  0  0  0  0  0  0  0  0  0  0  0
   26.4692  -18.6362  -16.9484 C   0  0  2  0  0  0  0  0  0  0  0  0
   26.4734  -19.2745  -18.2198 N   0  0  0  0  0  0  0  0  0  0  0  0
   26.4280  -19.5901  -15.8090 C   0  0  0  0  0  0  0  0  0  0  0  0
   25.7281  -20.6340  -15.8768 O   0  0  0  0  0  0  0  0  0  0  0  0
   30.8653  -20.4558  -12.8451 C   0  0  0  0  0  0  0  0  0  0  0  0
   29.5576  -20.6269  -13.5469 C   0  0  0  0  0  0  0  0  0  0  0  0
   28.3661  -20.2227  -12.7184 C   0  0  2  0  0  0  0  0  0  0  0  0
   28.3802  -20.9764  -11.4296 C   0  0  0  0  0  0  0  0  0  0  0  0
   27.0912  -20.3104  -13.4835 C   0  0  2  0  0  0  0  0  0  0  0  0
   27.1588  -19.3881  -14.5993 N   0  0  0  0  0  0  0  0  0  0  0  0
   25.9905  -19.8301  -12.5723 C   0  0  0  0  0  0  0  0  0  0  0  0
   25.5906  -18.6402  -12.6101 O   0  0  0  0  0  0  0  0  0  0  0  0
   25.3644  -20.6920  -11.6416 N   0  0  0  0  0  0  0  0  0  0  0  0
   24.0854  -20.3196  -11.0508 C   0  0  1  0  0  0  0  0  0  0  0  0
   22.9559  -20.5106  -11.9933 C   0  0  0  0  0  0  0  0  0  0  0  0
   21.6741  -20.1500  -11.3560 C   0  0  0  0  0  0  0  0  0  0  0  0
   21.0452  -18.9275  -11.5433 C   0  0  0  0  0  0  0  0  0  0  0  0
   19.8524  -18.5841  -10.9604 C   0  0  0  0  0  0  0  0  0  0  0  0
   19.2138  -19.4852  -10.1330 C   0  0  0  0  0  0  0  0  0  0  0  0
   19.8123  -20.7014   -9.9295 C   0  0  0  0  0  0  0  0  0  0  0  0
   21.0094  -21.0491  -10.5131 C   0  0  0  0  0  0  0  0  0  0  0  0
   23.9144  -21.0594   -9.7964 C   0  0  0  0  0  0  0  0  0  0  0  0
   23.4739  -20.4148   -8.6597 O   0  0  0  0  0  0  0  0  0  0  0  0
   24.1609  -22.2748   -9.7303 O   0  0  0  0  0  0  0  0  0  0  0  0
  2  1  1  6
  3  2  1  0
  4  2  1  0
  4  6  1  0
  4  5  1  6
  6  7  2  0
  6 13  1  0
  8  9  1  0
  9 10  1  0
 10 12  1  0
 10 11  1  1
 12 14  1  0
 12 13  1  6
 14 15  2  0
 14 16  1  0
 16 17  1  0
 17 25  1  0
 17 18  1  6
 19 18  1  0
 19 20  2  0
 21 20  1  0
 22 21  2  0
 23 24  2  0
 23 22  1  0
 24 19  1  0
 25 26  1  0
 27 25  2  0
M  END
$$$$
