VIF.pdb
     RDKit          3D

 27 27  0  0  1  0  0  0  0  0999 V2000
   20.9463  -22.5037  -13.1403 C   0  0  0  0  0  0  0  0  0  0  0  0
   21.3113  -21.0496  -13.3692 C   0  0  2  0  0  0  0  0  0  0  0  0
   20.2259  -20.3637  -14.1708 C   0  0  0  0  0  0  0  0  0  0  0  0
   22.6669  -20.9213  -14.0303 C   0  0  2  0  0  0  0  0  0  0  0  0
   22.7212  -21.5151  -15.3220 N   0  0  0  0  0  0  0  0  0  0  0  0
   23.6750  -21.4698  -13.0855 C   0  0  0  0  0  0  0  0  0  0  0  0
   23.5959  -22.6622  -12.6907 O   0  0  0  0  0  0  0  0  0  0  0  0
   28.6090  -19.0280  -13.0449 C   0  0  0  0  0  0  0  0  0  0  0  0
   27.2732  -19.4271  -12.5078 C   0  0  0  0  0  0  0  0  0  0  0  0
   27.1247  -20.9103  -12.2896 C   0  0  2  0  0  0  0  0  0  0  0  0
   27.4949  -21.6348  -13.5415 C   0  0  0  0  0  0  0  0  0  0  0  0
   25.7922  -21.2671  -11.7279 C   0  0  2  0  0  0  0  0  0  0  0  0
   24.7660  -20.7002  -12.5799 N   0  0  0  0  0  0  0  0  0  0  0  0
   25.6801  -20.5936  -10.3840 C   0  0  0  0  0  0  0  0  0  0  0  0
   24.9801  -19.5620  -10.2321 O   0  0  0  0  0  0  0  0  0  0  0  0
   26.3534  -21.0901   -9.2432 N   0  0  0  0  0  0  0  0  0  0  0  0
   26.2251  -20.4019   -7.9652 C   0  0  1  0  0  0  0  0  0  0  0  0
   26.4509  -21.3104   -6.8144 C   0  0  0  0  0  0  0  0  0  0  0  0
   27.6353  -20.8910   -6.0394 C   0  0  0  0  0  0  0  0  0  0  0  0
   28.8801  -20.6651   -6.6091 C   0  0  0  0  0  0  0  0  0  0  0  0
   29.9854  -20.2706   -5.8996 C   0  0  0  0  0  0  0  0  0  0  0  0
   29.8874  -20.0783   -4.5366 C   0  0  0  0  0  0  0  0  0  0  0  0
   28.6693  -20.2943   -3.9465 C   0  0  0  0  0  0  0  0  0  0  0  0
   27.5580  -20.6901   -4.6557 C   0  0  0  0  0  0  0  0  0  0  0  0
   27.1235  -19.2431   -7.9635 C   0  0  0  0  0  0  0  0  0  0  0  0
   26.8862  -18.1765   -7.1223 O   0  0  0  0  0  0  0  0  0  0  0  0
   28.1114  -19.1970   -8.7146 O   0  0  0  0  0  0  0  0  0  0  0  0
  2  1  1  6
  3  2  1  0
  4  2  1  0
  4  6  1  0
  4  5  1  6
  6  7  2  0
  6 13  1  0
  8  9  1  0
  9 10  1  0
 10 12  1  0
 10 11  1  6
 12 14  1  0
 12 13  1  6
 14 15  2  0
 14 16  1  0
 16 17  1  0
 17 25  1  0
 17 18  1  1
 19 18  1  0
 19 20  2  0
 21 20  1  0
 22 21  2  0
 23 24  2  0
 23 22  1  0
 24 19  1  0
 25 26  1  0
 27 25  2  0
M  END
$$$$
