VIF.pdb
     RDKit          3D

 27 27  0  0  1  0  0  0  0  0999 V2000
   28.6441  -22.4352  -15.7719 C   0  0  0  0  0  0  0  0  0  0  0  0
   27.7833  -22.6142  -17.0076 C   0  0  2  0  0  0  0  0  0  0  0  0
   28.5585  -23.3560  -18.0752 C   0  0  0  0  0  0  0  0  0  0  0  0
   27.2615  -21.2853  -17.5105 C   0  0  2  0  0  0  0  0  0  0  0  0
   28.2244  -20.5481  -18.2543 N   0  0  0  0  0  0  0  0  0  0  0  0
   26.7290  -20.5448  -16.3366 C   0  0  0  0  0  0  0  0  0  0  0  0
   27.3541  -19.5579  -15.8686 O   0  0  0  0  0  0  0  0  0  0  0  0
   21.7961  -18.8378  -16.3130 C   0  0  0  0  0  0  0  0  0  0  0  0
   23.2463  -19.0770  -16.0455 C   0  0  0  0  0  0  0  0  0  0  0  0
   23.5078  -19.9218  -14.8257 C   0  0  2  0  0  0  0  0  0  0  0  0
   22.7488  -19.3660  -13.6662 C   0  0  0  0  0  0  0  0  0  0  0  0
   24.9629  -20.1276  -14.5835 C   0  0  2  0  0  0  0  0  0  0  0  0
   25.5090  -20.8967  -15.6838 N   0  0  0  0  0  0  0  0  0  0  0  0
   25.0930  -20.9706  -13.3406 C   0  0  0  0  0  0  0  0  0  0  0  0
   24.7827  -22.1876  -13.3472 O   0  0  0  0  0  0  0  0  0  0  0  0
   25.5668  -20.4322  -12.1213 N   0  0  0  0  0  0  0  0  0  0  0  0
   25.7983  -21.3080  -10.9799 C   0  0  1  0  0  0  0  0  0  0  0  0
   27.1768  -21.1811  -10.4467 C   0  0  0  0  0  0  0  0  0  0  0  0
   27.1805  -20.4312   -9.1751 C   0  0  0  0  0  0  0  0  0  0  0  0
   26.8179  -19.0957   -9.0748 C   0  0  0  0  0  0  0  0  0  0  0  0
   26.8130  -18.3911   -7.8984 C   0  0  0  0  0  0  0  0  0  0  0  0
   27.1855  -19.0181   -6.7269 C   0  0  0  0  0  0  0  0  0  0  0  0
   27.5490  -20.3379   -6.7958 C   0  0  0  0  0  0  0  0  0  0  0  0
   27.5549  -21.0480   -7.9750 C   0  0  0  0  0  0  0  0  0  0  0  0
   24.7684  -21.0455   -9.9699 C   0  0  0  0  0  0  0  0  0  0  0  0
   24.5946  -21.9086   -8.9085 O   0  0  0  0  0  0  0  0  0  0  0  0
   24.0346  -20.0466  -10.0473 O   0  0  0  0  0  0  0  0  0  0  0  0
  2  1  1  1
  3  2  1  0
  4  2  1  0
  4  6  1  0
  4  5  1  1
  6  7  2  0
  6 13  1  0
  8  9  1  0
  9 10  1  0
 10 12  1  0
 10 11  1  1
 12 14  1  0
 12 13  1  6
 14 15  2  0
 14 16  1  0
 16 17  1  0
 17 25  1  0
 17 18  1  1
 19 18  1  0
 19 20  2  0
 21 20  1  0
 22 21  2  0
 23 24  2  0
 23 22  1  0
 24 19  1  0
 25 26  1  0
 27 25  2  0
M  END
$$$$
