VIF.pdb
     RDKit          3D

 27 27  0  0  1  0  0  0  0  0999 V2000
   21.3782  -30.3026  -16.2526 C   0  0  0  0  0  0  0  0  0  0  0  0
   22.3039  -31.4682  -15.9618 C   0  0  2  0  0  0  0  0  0  0  0  0
   23.0612  -31.2189  -14.6752 C   0  0  0  0  0  0  0  0  0  0  0  0
   23.2375  -31.7311  -17.1237 C   0  0  2  0  0  0  0  0  0  0  0  0
   22.5766  -32.2571  -18.2685 N   0  0  0  0  0  0  0  0  0  0  0  0
   24.3345  -32.6009  -16.6235 C   0  0  0  0  0  0  0  0  0  0  0  0
   24.1512  -33.8375  -16.4781 O   0  0  0  0  0  0  0  0  0  0  0  0
   29.3719  -31.7845  -18.2188 C   0  0  0  0  0  0  0  0  0  0  0  0
   28.1449  -32.4701  -17.7124 C   0  0  0  0  0  0  0  0  0  0  0  0
   27.9930  -32.4156  -16.2146 C   0  0  2  0  0  0  0  0  0  0  0  0
   29.1854  -33.0441  -15.5724 C   0  0  0  0  0  0  0  0  0  0  0  0
   26.6795  -32.9519  -15.7610 C   0  0  2  0  0  0  0  0  0  0  0  0
   25.6289  -32.1025  -16.2856 N   0  0  0  0  0  0  0  0  0  0  0  0
   26.6437  -32.8316  -14.2588 C   0  0  0  0  0  0  0  0  0  0  0  0
   26.9208  -31.7476  -13.6884 O   0  0  0  0  0  0  0  0  0  0  0  0
   26.2989  -33.9262  -13.4317 N   0  0  0  0  0  0  0  0  0  0  0  0
   26.2851  -33.7681  -11.9831 C   0  0  1  0  0  0  0  0  0  0  0  0
   25.3524  -32.7011  -11.5447 C   0  0  0  0  0  0  0  0  0  0  0  0
   25.2202  -32.6913  -10.0744 C   0  0  0  0  0  0  0  0  0  0  0  0
   24.2677  -33.4310   -9.3883 C   0  0  0  0  0  0  0  0  0  0  0  0
   24.1392  -33.4331   -8.0230 C   0  0  0  0  0  0  0  0  0  0  0  0
   24.9921  -32.6649   -7.2570 C   0  0  0  0  0  0  0  0  0  0  0  0
   25.9434  -31.9235   -7.9082 C   0  0  0  0  0  0  0  0  0  0  0  0
   26.0750  -31.9191   -9.2783 C   0  0  0  0  0  0  0  0  0  0  0  0
   25.9941  -35.0685  -11.3715 C   0  0  0  0  0  0  0  0  0  0  0  0
   26.5689  -35.4187  -10.1679 O   0  0  0  0  0  0  0  0  0  0  0  0
   25.2285  -35.8779  -11.9201 O   0  0  0  0  0  0  0  0  0  0  0  0
  2  1  1  6
  3  2  1  0
  4  2  1  0
  4  6  1  0
  4  5  1  6
  6  7  2  0
  6 13  1  0
  8  9  1  0
  9 10  1  0
 10 12  1  0
 10 11  1  1
 12 14  1  0
 12 13  1  6
 14 15  2  0
 14 16  1  0
 16 17  1  0
 17 25  1  0
 17 18  1  6
 19 18  1  0
 19 20  2  0
 21 20  1  0
 22 21  2  0
 23 24  2  0
 23 22  1  0
 24 19  1  0
 25 26  1  0
 27 25  2  0
M  END
$$$$
