VIF.pdb
     RDKit          3D

 27 27  0  0  1  0  0  0  0  0999 V2000
   29.2988  -19.5251  -13.4029 C   0  0  0  0  0  0  0  0  0  0  0  0
   28.4839  -20.6136  -14.0747 C   0  0  2  0  0  0  0  0  0  0  0  0
   29.1860  -21.0854  -15.3298 C   0  0  0  0  0  0  0  0  0  0  0  0
   27.0728  -20.1462  -14.3598 C   0  0  2  0  0  0  0  0  0  0  0  0
   27.0050  -19.1438  -15.3671 N   0  0  0  0  0  0  0  0  0  0  0  0
   26.4752  -19.7242  -13.0657 C   0  0  0  0  0  0  0  0  0  0  0  0
   26.5269  -18.5203  -12.7024 O   0  0  0  0  0  0  0  0  0  0  0  0
   21.5844  -20.2574  -12.1044 C   0  0  0  0  0  0  0  0  0  0  0  0
   23.0379  -19.9147  -12.0638 C   0  0  0  0  0  0  0  0  0  0  0  0
   23.7867  -20.5763  -10.9363 C   0  0  2  0  0  0  0  0  0  0  0  0
   23.0650  -20.3328   -9.6521 C   0  0  0  0  0  0  0  0  0  0  0  0
   25.2300  -20.2084  -10.9253 C   0  0  2  0  0  0  0  0  0  0  0  0
   25.8233  -20.6323  -12.1777 N   0  0  0  0  0  0  0  0  0  0  0  0
   25.8851  -21.0068   -9.8272 C   0  0  0  0  0  0  0  0  0  0  0  0
   25.9162  -22.2617   -9.8681 O   0  0  0  0  0  0  0  0  0  0  0  0
   26.4892  -20.3825   -8.7108 N   0  0  0  0  0  0  0  0  0  0  0  0
   27.0770  -21.1939   -7.6527 C   0  0  1  0  0  0  0  0  0  0  0  0
   28.4569  -20.7642   -7.3180 C   0  0  0  0  0  0  0  0  0  0  0  0
   28.4685  -19.9488   -6.0874 C   0  0  0  0  0  0  0  0  0  0  0  0
   28.8220  -20.4495   -4.8426 C   0  0  0  0  0  0  0  0  0  0  0  0
   28.8410  -19.7000   -3.6944 C   0  0  0  0  0  0  0  0  0  0  0  0
   28.4934  -18.3655   -3.7458 C   0  0  0  0  0  0  0  0  0  0  0  0
   28.1394  -17.8435   -4.9627 C   0  0  0  0  0  0  0  0  0  0  0  0
   28.1194  -18.5930   -6.1170 C   0  0  0  0  0  0  0  0  0  0  0  0
   26.1773  -21.1795   -6.4950 C   0  0  0  0  0  0  0  0  0  0  0  0
   26.3370  -22.0933   -5.4747 O   0  0  0  0  0  0  0  0  0  0  0  0
   25.2575  -20.3496   -6.4084 O   0  0  0  0  0  0  0  0  0  0  0  0
  2  1  1  6
  3  2  1  0
  4  2  1  0
  4  6  1  0
  4  5  1  6
  6  7  2  0
  6 13  1  0
  8  9  1  0
  9 10  1  0
 10 12  1  0
 10 11  1  1
 12 14  1  0
 12 13  1  6
 14 15  2  0
 14 16  1  0
 16 17  1  0
 17 25  1  0
 17 18  1  1
 19 18  1  0
 19 20  2  0
 21 20  1  0
 22 21  2  0
 23 24  2  0
 23 22  1  0
 24 19  1  0
 25 26  1  0
 27 25  2  0
M  END
$$$$
