VIF.pdb
     RDKit          3D

 27 27  0  0  1  0  0  0  0  0999 V2000
   16.7263   -9.4878  -16.6637 C   0  0  0  0  0  0  0  0  0  0  0  0
   17.5344  -10.2644  -17.6854 C   0  0  2  0  0  0  0  0  0  0  0  0
   16.6394  -10.7121  -18.8209 C   0  0  0  0  0  0  0  0  0  0  0  0
   18.2566  -11.4296  -17.0436 C   0  0  2  0  0  0  0  0  0  0  0  0
   17.3790  -12.4496  -16.5816 N   0  0  0  0  0  0  0  0  0  0  0  0
   19.1318  -10.8760  -15.9770 C   0  0  0  0  0  0  0  0  0  0  0  0
   18.7323  -10.8308  -14.7844 O   0  0  0  0  0  0  0  0  0  0  0  0
   24.1054  -12.3640  -15.3475 C   0  0  0  0  0  0  0  0  0  0  0  0
   22.7277  -11.8065  -15.1960 C   0  0  0  0  0  0  0  0  0  0  0  0
   22.6584  -10.3090  -15.3455 C   0  0  2  0  0  0  0  0  0  0  0  0
   23.6696   -9.6744  -14.4487 C   0  0  0  0  0  0  0  0  0  0  0  0
   21.2704   -9.7905  -15.1933 C   0  0  2  0  0  0  0  0  0  0  0  0
   20.4440  -10.3743  -16.2309 N   0  0  0  0  0  0  0  0  0  0  0  0
   21.3197   -8.3048  -15.4437 C   0  0  0  0  0  0  0  0  0  0  0  0
   21.6226   -7.8474  -16.5734 O   0  0  0  0  0  0  0  0  0  0  0  0
   21.0290   -7.3675  -14.4249 N   0  0  0  0  0  0  0  0  0  0  0  0
   21.1496   -5.9402  -14.6928 C   0  0  1  0  0  0  0  0  0  0  0  0
   19.8409   -5.2450  -14.6265 C   0  0  0  0  0  0  0  0  0  0  0  0
   20.0038   -3.7965  -14.8602 C   0  0  0  0  0  0  0  0  0  0  0  0
   20.0027   -3.2217  -16.1231 C   0  0  0  0  0  0  0  0  0  0  0  0
   20.1483   -1.8773  -16.3513 C   0  0  0  0  0  0  0  0  0  0  0  0
   20.3073   -1.0181  -15.2833 C   0  0  0  0  0  0  0  0  0  0  0  0
   20.3125   -1.5582  -14.0235 C   0  0  0  0  0  0  0  0  0  0  0  0
   20.1666   -2.9070  -13.7911 C   0  0  0  0  0  0  0  0  0  0  0  0
   22.1451   -5.3731  -13.7778 C   0  0  0  0  0  0  0  0  0  0  0  0
   22.1016   -5.6642  -12.4305 O   0  0  0  0  0  0  0  0  0  0  0  0
   23.0436   -4.6231  -14.1930 O   0  0  0  0  0  0  0  0  0  0  0  0
  2  1  1  1
  3  2  1  0
  4  2  1  0
  4  6  1  0
  4  5  1  1
  6  7  2  0
  6 13  1  0
  8  9  1  0
  9 10  1  0
 10 12  1  0
 10 11  1  1
 12 14  1  0
 12 13  1  6
 14 15  2  0
 14 16  1  0
 16 17  1  0
 17 25  1  0
 17 18  1  1
 19 18  1  0
 19 20  2  0
 21 20  1  0
 22 21  2  0
 23 24  2  0
 23 22  1  0
 24 19  1  0
 25 26  1  0
 27 25  2  0
M  END
$$$$
