VIF.pdb
     RDKit          3D

 27 27  0  0  1  0  0  0  0  0999 V2000
   22.0525  -14.5042  -20.9840 C   0  0  0  0  0  0  0  0  0  0  0  0
   22.2154  -13.7440  -19.6819 C   0  0  2  0  0  0  0  0  0  0  0  0
   22.0729  -12.2576  -19.9293 C   0  0  0  0  0  0  0  0  0  0  0  0
   23.5296  -14.0804  -19.0105 C   0  0  2  0  0  0  0  0  0  0  0  0
   23.6705  -15.4641  -18.7114 N   0  0  0  0  0  0  0  0  0  0  0  0
   23.6558  -13.2026  -17.8173 C   0  0  0  0  0  0  0  0  0  0  0  0
   23.0370  -13.4767  -16.7562 O   0  0  0  0  0  0  0  0  0  0  0  0
   28.3182  -11.7244  -16.0085 C   0  0  0  0  0  0  0  0  0  0  0  0
   26.8687  -12.0369  -16.1909 C   0  0  0  0  0  0  0  0  0  0  0  0
   26.0124  -10.8229  -16.4411 C   0  0  2  0  0  0  0  0  0  0  0  0
   26.2750   -9.8045  -15.3813 C   0  0  0  0  0  0  0  0  0  0  0  0
   24.5778  -11.1745  -16.6329 C   0  0  2  0  0  0  0  0  0  0  0  0
   24.4638  -12.0257  -17.8002 N   0  0  0  0  0  0  0  0  0  0  0  0
   23.8423   -9.8947  -16.9390 C   0  0  0  0  0  0  0  0  0  0  0  0
   23.8199   -9.4222  -18.1025 O   0  0  0  0  0  0  0  0  0  0  0  0
   23.1502   -9.1750  -15.9370 N   0  0  0  0  0  0  0  0  0  0  0  0
   22.3207   -8.0339  -16.3019 C   0  0  1  0  0  0  0  0  0  0  0  0
   21.3033   -8.3844  -17.3231 C   0  0  0  0  0  0  0  0  0  0  0  0
   20.4904   -7.2050  -17.6802 C   0  0  0  0  0  0  0  0  0  0  0  0
   21.0126   -6.0741  -18.2914 C   0  0  0  0  0  0  0  0  0  0  0  0
   20.2660   -4.9753  -18.6318 C   0  0  0  0  0  0  0  0  0  0  0  0
   18.9123   -4.9618  -18.3642 C   0  0  0  0  0  0  0  0  0  0  0  0
   18.3688   -6.0658  -17.7606 C   0  0  0  0  0  0  0  0  0  0  0  0
   19.1154   -7.1702  -17.4176 C   0  0  0  0  0  0  0  0  0  0  0  0
   21.7351   -7.4697  -15.0817 C   0  0  0  0  0  0  0  0  0  0  0  0
   21.4254   -6.1278  -15.0114 O   0  0  0  0  0  0  0  0  0  0  0  0
   21.5065   -8.1832  -14.0913 O   0  0  0  0  0  0  0  0  0  0  0  0
  2  1  1  6
  3  2  1  0
  4  2  1  0
  4  6  1  0
  4  5  1  1
  6  7  2  0
  6 13  1  0
  8  9  1  0
  9 10  1  0
 10 12  1  0
 10 11  1  1
 12 14  1  0
 12 13  1  6
 14 15  2  0
 14 16  1  0
 16 17  1  0
 17 25  1  0
 17 18  1  6
 19 18  1  0
 19 20  2  0
 21 20  1  0
 22 21  2  0
 23 24  2  0
 23 22  1  0
 24 19  1  0
 25 26  1  0
 27 25  2  0
M  END
$$$$
