VIF.pdb
     RDKit          3D

 27 27  0  0  1  0  0  0  0  0999 V2000
   24.6190  -17.1377  -19.7397 C   0  0  0  0  0  0  0  0  0  0  0  0
   23.3526  -17.4408  -18.9623 C   0  0  2  0  0  0  0  0  0  0  0  0
   22.3010  -16.3930  -19.2578 C   0  0  0  0  0  0  0  0  0  0  0  0
   23.6329  -17.5558  -17.4794 C   0  0  2  0  0  0  0  0  0  0  0  0
   24.1888  -16.3724  -16.9186 N   0  0  0  0  0  0  0  0  0  0  0  0
   24.4829  -18.7591  -17.2805 C   0  0  0  0  0  0  0  0  0  0  0  0
   24.0950  -19.8868  -17.6828 O   0  0  0  0  0  0  0  0  0  0  0  0
   27.7862  -20.3973  -18.9800 C   0  0  0  0  0  0  0  0  0  0  0  0
   28.2399  -19.3205  -18.0491 C   0  0  0  0  0  0  0  0  0  0  0  0
   27.9648  -19.6164  -16.5978 C   0  0  2  0  0  0  0  0  0  0  0  0
   28.9124  -20.6657  -16.1178 C   0  0  0  0  0  0  0  0  0  0  0  0
   26.5260  -19.9058  -16.3440 C   0  0  2  0  0  0  0  0  0  0  0  0
   25.7570  -18.7132  -16.6381 N   0  0  0  0  0  0  0  0  0  0  0  0
   26.3798  -20.1798  -14.8689 C   0  0  0  0  0  0  0  0  0  0  0  0
   27.2046  -19.7222  -14.0396 O   0  0  0  0  0  0  0  0  0  0  0  0
   25.3152  -20.9584  -14.3575 N   0  0  0  0  0  0  0  0  0  0  0  0
   25.2661  -21.2809  -12.9373 C   0  0  1  0  0  0  0  0  0  0  0  0
   25.2010  -20.0659  -12.0887 C   0  0  0  0  0  0  0  0  0  0  0  0
   25.1429  -20.4273  -10.6585 C   0  0  0  0  0  0  0  0  0  0  0  0
   23.9689  -20.7736  -10.0052 C   0  0  0  0  0  0  0  0  0  0  0  0
   23.9043  -21.1157   -8.6788 C   0  0  0  0  0  0  0  0  0  0  0  0
   25.0573  -21.1258   -7.9207 C   0  0  0  0  0  0  0  0  0  0  0  0
   26.2325  -20.7877   -8.5399 C   0  0  0  0  0  0  0  0  0  0  0  0
   26.3007  -20.4439   -9.8710 C   0  0  0  0  0  0  0  0  0  0  0  0
   24.1495  -22.2020  -12.7032 C   0  0  0  0  0  0  0  0  0  0  0  0
   24.3412  -23.3643  -11.9863 O   0  0  0  0  0  0  0  0  0  0  0  0
   23.0140  -21.9574  -13.1426 O   0  0  0  0  0  0  0  0  0  0  0  0
  2  1  1  6
  3  2  1  0
  4  2  1  0
  4  6  1  0
  4  5  1  6
  6  7  2  0
  6 13  1  0
  8  9  1  0
  9 10  1  0
 10 12  1  0
 10 11  1  6
 12 14  1  0
 12 13  1  1
 14 15  2  0
 14 16  1  0
 16 17  1  0
 17 25  1  0
 17 18  1  1
 19 18  1  0
 19 20  2  0
 21 20  1  0
 22 21  2  0
 23 24  2  0
 23 22  1  0
 24 19  1  0
 25 26  1  0
 27 25  2  0
M  END
$$$$
