GSM.pdb
     RDKit          3D

 19 18  0  0  1  0  0  0  0  0999 V2000
    1.8652  -19.0493   22.3258 N   0  0  0  0  0  0  0  0  0  0  0  0
    2.8696  -18.7942   21.3459 C   0  0  0  0  0  0  0  0  0  0  0  0
    4.2237  -18.6577   21.8923 C   0  0  0  0  0  0  0  0  0  0  0  0
    4.5292  -19.4475   22.8487 O   0  0  0  0  0  0  0  0  0  0  0  0
    7.4943  -17.0257   19.8684 O   0  0  0  0  0  0  0  0  0  0  0  0
    7.5378  -18.0280   20.8166 C   0  0  0  0  0  0  0  0  0  0  0  0
    6.5228  -17.8052   21.9354 C   0  0  2  0  0  0  0  0  0  0  0  0
    5.1871  -17.7224   21.4303 N   0  0  0  0  0  0  0  0  0  0  0  0
    6.9516  -16.5874   22.6493 C   0  0  0  0  0  0  0  0  0  0  0  0
    6.5503  -15.4457   22.3344 O   0  0  0  0  0  0  0  0  0  0  0  0
    6.2858  -11.3270   26.8850 C   0  0  0  0  0  0  0  0  0  0  0  0
    6.1050  -13.1321   26.9144 S   0  0  0  0  0  0  0  0  0  0  0  0
    7.5948  -13.9226   26.2235 C   0  0  0  0  0  0  0  0  0  0  0  0
    7.1856  -14.9575   25.2133 C   0  0  0  0  0  0  0  0  0  0  0  0
    8.3329  -15.6250   24.5469 C   0  0  2  0  0  0  0  0  0  0  0  0
    7.8534  -16.7280   23.7326 N   0  0  0  0  0  0  0  0  0  0  0  0
    9.4005  -16.1005   25.4579 C   0  0  0  0  0  0  0  0  0  0  0  0
   10.3040  -15.1865   25.9698 O   0  0  0  0  0  0  0  0  0  0  0  0
    9.5568  -17.2941   25.8143 O   0  0  0  0  0  0  0  0  0  0  0  0
  1  2  1  0
  3  2  1  0
  3  4  2  0
  5  6  1  0
  7  6  1  6
  7  8  1  0
  8  3  1  0
  9  7  1  0
 10  9  2  0
 11 12  1  0
 13 14  1  0
 13 12  1  0
 15 14  1  1
 15 16  1  0
 15 17  1  0
 16  9  1  0
 17 19  2  0
 17 18  1  0
M  END
$$$$
