GSM.pdb
     RDKit          3D

 19 18  0  0  1  0  0  0  0  0999 V2000
    8.0337  -12.7425   17.5614 N   0  0  0  0  0  0  0  0  0  0  0  0
    8.7227  -13.8248   18.1843 C   0  0  0  0  0  0  0  0  0  0  0  0
    8.1360  -14.2607   19.4557 C   0  0  0  0  0  0  0  0  0  0  0  0
    7.2948  -13.4632   19.9926 O   0  0  0  0  0  0  0  0  0  0  0  0
    8.6571  -18.0514   21.3927 O   0  0  0  0  0  0  0  0  0  0  0  0
    7.4872  -17.3191   21.4173 C   0  0  0  0  0  0  0  0  0  0  0  0
    7.7463  -15.8181   21.3097 C   0  0  2  0  0  0  0  0  0  0  0  0
    8.4425  -15.4857   20.1051 N   0  0  0  0  0  0  0  0  0  0  0  0
    8.4799  -15.4343   22.5307 C   0  0  0  0  0  0  0  0  0  0  0  0
    9.7239  -15.3091   22.5577 O   0  0  0  0  0  0  0  0  0  0  0  0
    6.2247  -11.0539   26.5415 C   0  0  0  0  0  0  0  0  0  0  0  0
    6.7173  -12.2816   27.7833 S   0  0  0  0  0  0  0  0  0  0  0  0
    7.8870  -13.4747   27.0555 C   0  0  0  0  0  0  0  0  0  0  0  0
    7.4078  -13.8694   25.6868 C   0  0  0  0  0  0  0  0  0  0  0  0
    8.3213  -14.8056   24.9832 C   0  0  2  0  0  0  0  0  0  0  0  0
    7.7366  -15.2004   23.7136 N   0  0  0  0  0  0  0  0  0  0  0  0
    8.7050  -16.0105   25.7556 C   0  0  0  0  0  0  0  0  0  0  0  0
    9.7812  -15.9394   26.6219 O   0  0  0  0  0  0  0  0  0  0  0  0
    8.1189  -17.1188   25.6890 O   0  0  0  0  0  0  0  0  0  0  0  0
  1  2  1  0
  3  2  1  0
  3  4  2  0
  5  6  1  0
  7  6  1  1
  7  8  1  0
  8  3  1  0
  9  7  1  0
 10  9  2  0
 11 12  1  0
 13 14  1  0
 13 12  1  0
 15 14  1  1
 15 16  1  0
 15 17  1  0
 16  9  1  0
 17 19  2  0
 17 18  1  0
M  END
$$$$
