GSM.pdb
     RDKit          3D

 19 18  0  0  1  0  0  0  0  0999 V2000
    7.6947  -12.5304   18.5435 N   0  0  0  0  0  0  0  0  0  0  0  0
    8.7113  -13.4802   18.8573 C   0  0  0  0  0  0  0  0  0  0  0  0
    8.3804  -14.3698   19.9752 C   0  0  0  0  0  0  0  0  0  0  0  0
    7.2990  -14.1096   20.6034 O   0  0  0  0  0  0  0  0  0  0  0  0
   10.8333  -17.4427   21.7495 O   0  0  0  0  0  0  0  0  0  0  0  0
    9.4681  -17.5808   21.5986 C   0  0  0  0  0  0  0  0  0  0  0  0
    8.7583  -16.2308   21.5272 C   0  0  2  0  0  0  0  0  0  0  0  0
    9.1733  -15.4737   20.3867 N   0  0  0  0  0  0  0  0  0  0  0  0
    9.0295  -15.5502   22.8077 C   0  0  0  0  0  0  0  0  0  0  0  0
    9.9431  -14.7068   22.9418 O   0  0  0  0  0  0  0  0  0  0  0  0
    6.9162  -11.0085   27.7876 C   0  0  0  0  0  0  0  0  0  0  0  0
    6.9513  -12.0013   26.2693 S   0  0  0  0  0  0  0  0  0  0  0  0
    6.7343  -13.7660   26.6693 C   0  0  0  0  0  0  0  0  0  0  0  0
    6.8425  -14.5785   25.4095 C   0  0  0  0  0  0  0  0  0  0  0  0
    8.2028  -15.1236   25.1678 C   0  0  2  0  0  0  0  0  0  0  0  0
    8.2175  -15.8718   23.9229 N   0  0  0  0  0  0  0  0  0  0  0  0
    8.7500  -15.9592   26.2623 C   0  0  0  0  0  0  0  0  0  0  0  0
    9.4832  -15.3546   27.2676 O   0  0  0  0  0  0  0  0  0  0  0  0
    8.5987  -17.2019   26.3568 O   0  0  0  0  0  0  0  0  0  0  0  0
  1  2  1  0
  3  2  1  0
  3  4  2  0
  5  6  1  0
  7  6  1  1
  7  8  1  0
  8  3  1  0
  9  7  1  0
 10  9  2  0
 11 12  1  0
 13 14  1  0
 13 12  1  0
 15 14  1  1
 15 16  1  0
 15 17  1  0
 16  9  1  0
 17 19  2  0
 17 18  1  0
M  END
$$$$
