GSM.pdb
     RDKit          3D

 19 18  0  0  1  0  0  0  0  0999 V2000
    7.3929  -19.7146   19.2112 N   0  0  0  0  0  0  0  0  0  0  0  0
    7.7682  -20.2680   20.4709 C   0  0  0  0  0  0  0  0  0  0  0  0
    7.1604  -19.6013   21.6271 C   0  0  0  0  0  0  0  0  0  0  0  0
    5.9495  -19.9140   21.8875 O   0  0  0  0  0  0  0  0  0  0  0  0
    8.1750  -19.7432   25.1806 O   0  0  0  0  0  0  0  0  0  0  0  0
    6.9755  -19.3123   24.6505 C   0  0  0  0  0  0  0  0  0  0  0  0
    7.1669  -18.1901   23.6329 C   0  0  2  0  0  0  0  0  0  0  0  0
    7.8245  -18.6538   22.4502 N   0  0  0  0  0  0  0  0  0  0  0  0
    7.9065  -17.1198   24.3285 C   0  0  0  0  0  0  0  0  0  0  0  0
    9.1552  -17.0956   24.3919 O   0  0  0  0  0  0  0  0  0  0  0  0
    6.7964  -10.5141   25.3941 C   0  0  0  0  0  0  0  0  0  0  0  0
    6.1638  -11.4768   26.7959 S   0  0  0  0  0  0  0  0  0  0  0  0
    7.1886  -12.9624   27.0493 C   0  0  0  0  0  0  0  0  0  0  0  0
    6.6859  -14.0699   26.1662 C   0  0  0  0  0  0  0  0  0  0  0  0
    7.7522  -14.9975   25.7096 C   0  0  2  0  0  0  0  0  0  0  0  0
    7.1636  -16.0835   24.9454 N   0  0  0  0  0  0  0  0  0  0  0  0
    8.6110  -15.5477   26.7844 C   0  0  0  0  0  0  0  0  0  0  0  0
    8.3293  -16.8025   27.2941 O   0  0  0  0  0  0  0  0  0  0  0  0
    9.5994  -14.9556   27.2831 O   0  0  0  0  0  0  0  0  0  0  0  0
  1  2  1  0
  3  2  1  0
  3  4  2  0
  5  6  1  0
  7  6  1  1
  7  8  1  0
  8  3  1  0
  9  7  1  0
 10  9  2  0
 11 12  1  0
 13 14  1  0
 13 12  1  0
 15 14  1  1
 15 16  1  0
 15 17  1  0
 16  9  1  0
 17 19  2  0
 17 18  1  0
M  END
$$$$
