GSM.pdb
     RDKit          3D

 19 18  0  0  1  0  0  0  0  0999 V2000
    9.5080  -19.7079   22.6374 N   0  0  0  0  0  0  0  0  0  0  0  0
    9.6573  -19.1915   21.3163 C   0  0  0  0  0  0  0  0  0  0  0  0
    9.4592  -17.7423   21.2098 C   0  0  0  0  0  0  0  0  0  0  0  0
   10.5141  -17.0374   21.0607 O   0  0  0  0  0  0  0  0  0  0  0  0
    5.7594  -15.7956   21.4634 O   0  0  0  0  0  0  0  0  0  0  0  0
    6.7403  -15.2140   20.6855 C   0  0  0  0  0  0  0  0  0  0  0  0
    8.1395  -15.6792   21.0820 C   0  0  2  0  0  0  0  0  0  0  0  0
    8.1953  -17.0972   21.2617 N   0  0  0  0  0  0  0  0  0  0  0  0
    8.5001  -14.9239   22.2970 C   0  0  0  0  0  0  0  0  0  0  0  0
    8.5751  -13.6758   22.3166 O   0  0  0  0  0  0  0  0  0  0  0  0
    7.0127  -11.1278   27.8506 C   0  0  0  0  0  0  0  0  0  0  0  0
    6.9374  -11.9553   26.2377 S   0  0  0  0  0  0  0  0  0  0  0  0
    7.4157  -13.7057   26.4084 C   0  0  0  0  0  0  0  0  0  0  0  0
    7.5084  -14.3311   25.0448 C   0  0  0  0  0  0  0  0  0  0  0  0
    8.7753  -15.0713   24.8145 C   0  0  2  0  0  0  0  0  0  0  0  0
    8.7698  -15.6506   23.4825 N   0  0  0  0  0  0  0  0  0  0  0  0
    9.0839  -16.1185   25.8163 C   0  0  0  0  0  0  0  0  0  0  0  0
    9.2702  -17.4217   25.3911 O   0  0  0  0  0  0  0  0  0  0  0  0
    9.1947  -15.9166   27.0504 O   0  0  0  0  0  0  0  0  0  0  0  0
  1  2  1  0
  3  2  1  0
  3  4  2  0
  5  6  1  0
  7  6  1  1
  7  8  1  0
  8  3  1  0
  9  7  1  0
 10  9  2  0
 11 12  1  0
 13 14  1  0
 13 12  1  0
 15 14  1  1
 15 16  1  0
 15 17  1  0
 16  9  1  0
 17 19  2  0
 17 18  1  0
M  END
$$$$
