GSM.pdb
     RDKit          3D

 19 18  0  0  1  0  0  0  0  0999 V2000
    2.3657  -18.8556   21.4374 N   0  0  0  0  0  0  0  0  0  0  0  0
    3.2289  -17.8642   20.8841 C   0  0  0  0  0  0  0  0  0  0  0  0
    4.6193  -17.9525   21.3420 C   0  0  0  0  0  0  0  0  0  0  0  0
    4.9740  -19.0652   21.8598 O   0  0  0  0  0  0  0  0  0  0  0  0
    7.9974  -16.3436   19.6749 O   0  0  0  0  0  0  0  0  0  0  0  0
    7.8365  -17.4383   20.5002 C   0  0  0  0  0  0  0  0  0  0  0  0
    6.9091  -17.1403   21.6761 C   0  0  2  0  0  0  0  0  0  0  0  0
    5.5668  -16.8994   21.2444 N   0  0  0  0  0  0  0  0  0  0  0  0
    7.5034  -15.9971   22.3948 C   0  0  0  0  0  0  0  0  0  0  0  0
    7.2346  -14.8094   22.1103 O   0  0  0  0  0  0  0  0  0  0  0  0
    6.6720  -11.2780   26.6119 C   0  0  0  0  0  0  0  0  0  0  0  0
    6.2239  -13.0350   26.6764 S   0  0  0  0  0  0  0  0  0  0  0  0
    7.7027  -14.0688   26.4202 C   0  0  0  0  0  0  0  0  0  0  0  0
    7.4752  -14.9802   25.2469 C   0  0  0  0  0  0  0  0  0  0  0  0
    8.7204  -15.3378   24.5207 C   0  0  2  0  0  0  0  0  0  0  0  0
    8.4128  -16.2663   23.4469 N   0  0  0  0  0  0  0  0  0  0  0  0
    9.8059  -15.8889   25.3655 C   0  0  0  0  0  0  0  0  0  0  0  0
   10.8166  -15.0477   25.7950 O   0  0  0  0  0  0  0  0  0  0  0  0
    9.8863  -17.0861   25.7348 O   0  0  0  0  0  0  0  0  0  0  0  0
  1  2  1  0
  3  2  1  0
  3  4  2  0
  5  6  1  0
  7  6  1  6
  7  8  1  0
  8  3  1  0
  9  7  1  0
 10  9  2  0
 11 12  1  0
 13 14  1  0
 13 12  1  0
 15 14  1  1
 15 16  1  0
 15 17  1  0
 16  9  1  0
 17 19  2  0
 17 18  1  0
M  END
$$$$
