GSM.pdb
     RDKit          3D

 19 18  0  0  1  0  0  0  0  0999 V2000
    8.2709  -12.3829   18.3672 N   0  0  0  0  0  0  0  0  0  0  0  0
    8.9342  -13.6304   18.5617 C   0  0  0  0  0  0  0  0  0  0  0  0
    8.5407  -14.3379   19.7846 C   0  0  0  0  0  0  0  0  0  0  0  0
    7.8148  -13.6834   20.6072 O   0  0  0  0  0  0  0  0  0  0  0  0
   10.0747  -18.0097   21.3128 O   0  0  0  0  0  0  0  0  0  0  0  0
    8.7190  -17.7557   21.3691 C   0  0  0  0  0  0  0  0  0  0  0  0
    8.4107  -16.2618   21.3000 C   0  0  2  0  0  0  0  0  0  0  0  0
    8.9115  -15.6727   20.0965 N   0  0  0  0  0  0  0  0  0  0  0  0
    8.9803  -15.6628   22.5220 C   0  0  0  0  0  0  0  0  0  0  0  0
   10.1459  -15.2123   22.5710 O   0  0  0  0  0  0  0  0  0  0  0  0
    5.8744  -11.3877   28.2203 C   0  0  0  0  0  0  0  0  0  0  0  0
    6.3875  -11.7535   26.5189 S   0  0  0  0  0  0  0  0  0  0  0  0
    7.4993  -13.1975   26.4962 C   0  0  0  0  0  0  0  0  0  0  0  0
    7.3337  -13.9323   25.1956 C   0  0  0  0  0  0  0  0  0  0  0  0
    8.4810  -14.8136   24.8597 C   0  0  2  0  0  0  0  0  0  0  0  0
    8.1666  -15.6000   23.6797 N   0  0  0  0  0  0  0  0  0  0  0  0
    8.9303  -15.7068   25.9533 C   0  0  0  0  0  0  0  0  0  0  0  0
    8.7548  -17.0727   25.8209 O   0  0  0  0  0  0  0  0  0  0  0  0
    9.4722  -15.3178   27.0169 O   0  0  0  0  0  0  0  0  0  0  0  0
  1  2  1  0
  3  2  1  0
  3  4  2  0
  5  6  1  0
  7  6  1  6
  7  8  1  0
  8  3  1  0
  9  7  1  0
 10  9  2  0
 11 12  1  0
 13 14  1  0
 13 12  1  0
 15 14  1  1
 15 16  1  0
 15 17  1  0
 16  9  1  0
 17 19  2  0
 17 18  1  0
M  END
$$$$
