GSM.pdb
     RDKit          3D

 19 18  0  0  1  0  0  0  0  0999 V2000
    8.0077  -12.5451   18.0691 N   0  0  0  0  0  0  0  0  0  0  0  0
    8.7676  -13.6993   18.4217 C   0  0  0  0  0  0  0  0  0  0  0  0
    8.3719  -14.3163   19.6920 C   0  0  0  0  0  0  0  0  0  0  0  0
    7.5823  -13.6346   20.4294 O   0  0  0  0  0  0  0  0  0  0  0  0
    9.7320  -18.0392   21.3281 O   0  0  0  0  0  0  0  0  0  0  0  0
    8.4204  -17.6255   21.4466 C   0  0  0  0  0  0  0  0  0  0  0  0
    8.2873  -16.1065   21.3661 C   0  0  2  0  0  0  0  0  0  0  0  0
    8.8055  -15.5937   20.1354 N   0  0  0  0  0  0  0  0  0  0  0  0
    8.9714  -15.5656   22.5560 C   0  0  0  0  0  0  0  0  0  0  0  0
   10.1548  -15.1624   22.5273 O   0  0  0  0  0  0  0  0  0  0  0  0
    5.4703  -12.2259   26.6797 C   0  0  0  0  0  0  0  0  0  0  0  0
    7.1772  -11.7915   27.1154 S   0  0  0  0  0  0  0  0  0  0  0  0
    8.2939  -13.1809   26.7361 C   0  0  0  0  0  0  0  0  0  0  0  0
    7.8495  -13.8426   25.4619 C   0  0  0  0  0  0  0  0  0  0  0  0
    8.7630  -14.9188   25.0001 C   0  0  2  0  0  0  0  0  0  0  0  0
    8.2505  -15.5048   23.7738 N   0  0  0  0  0  0  0  0  0  0  0  0
    9.0315  -15.9859   25.9925 C   0  0  0  0  0  0  0  0  0  0  0  0
    9.8857  -15.7226   27.0484 O   0  0  0  0  0  0  0  0  0  0  0  0
    8.5346  -17.1382   25.9552 O   0  0  0  0  0  0  0  0  0  0  0  0
  1  2  1  0
  3  2  1  0
  3  4  2  0
  5  6  1  0
  7  6  1  6
  7  8  1  0
  8  3  1  0
  9  7  1  0
 10  9  2  0
 11 12  1  0
 13 14  1  0
 13 12  1  0
 15 14  1  1
 15 16  1  0
 15 17  1  0
 16  9  1  0
 17 19  2  0
 17 18  1  0
M  END
$$$$
