LRM.pdb
     RDKit          3D

 28 27  0  0  1  0  0  0  0  0999 V2000
    9.6813  -13.7906   18.1868 C   0  0  0  0  0  0  0  0  0  0  0  0
    8.1717  -13.6007   18.3199 C   0  0  2  0  0  0  0  0  0  0  0  0
    7.8584  -12.1207   18.3047 C   0  0  0  0  0  0  0  0  0  0  0  0
    7.7637  -14.2746   19.5985 C   0  0  0  0  0  0  0  0  0  0  0  0
    8.1615  -15.7365   19.6046 C   0  0  2  0  0  0  0  0  0  0  0  0
    7.3098  -16.5091   18.7193 N   0  0  0  0  0  0  0  0  0  0  0  0
    8.0410  -16.3054   20.9781 C   0  0  0  0  0  0  0  0  0  0  0  0
    7.0107  -16.0394   21.6765 O   0  0  0  0  0  0  0  0  0  0  0  0
   11.8598  -22.0856   22.9396 N   0  0  0  0  0  0  0  0  0  0  0  0
   12.5076  -21.1040   23.7670 C   0  0  0  0  0  0  0  0  0  0  0  0
   13.7793  -20.9666   23.6404 N   0  0  0  0  0  0  0  0  0  0  0  0
   11.7394  -20.3434   24.6707 N   0  0  0  0  0  0  0  0  0  0  0  0
   10.3347  -20.5969   24.8559 C   0  0  0  0  0  0  0  0  0  0  0  0
    9.5372  -19.3047   24.6443 C   0  0  0  0  0  0  0  0  0  0  0  0
    9.5777  -18.8738   23.2012 C   0  0  0  0  0  0  0  0  0  0  0  0
    8.8559  -17.5723   22.9311 C   0  0  2  0  0  0  0  0  0  0  0  0
    9.0163  -17.1415   21.5731 N   0  0  0  0  0  0  0  0  0  0  0  0
    9.2712  -16.4864   23.8894 C   0  0  0  0  0  0  0  0  0  0  0  0
   10.4094  -15.9613   23.8136 O   0  0  0  0  0  0  0  0  0  0  0  0
   14.3192  -20.2882   24.2036 C   0  0  0  0  0  0  0  0  0  0  0  0
    6.2678  -10.4903   27.8546 S   0  0  0  0  0  0  0  0  0  0  0  0
    6.0286  -11.9800   26.8295 C   0  0  0  0  0  0  0  0  0  0  0  0
    7.5251  -12.8953   26.7324 C   0  0  0  0  0  0  0  0  0  0  0  0
    7.6109  -14.0914   25.9261 C   0  0  1  0  0  0  0  0  0  0  0  0
    8.8562  -14.9079   25.8048 N   0  0  0  0  0  0  0  0  0  0  0  0
    8.4068  -16.0322   24.8867 C   0  0  0  0  0  0  0  0  0  0  0  0
    9.1598  -15.7164   27.0361 O   0  0  0  0  0  0  0  0  0  0  0  0
    9.9899  -15.3596   28.0219 O   0  0  0  0  0  0  0  0  0  0  0  0
  2  1  1  1
  2  3  1  0
  4  2  1  0
  5  4  1  0
  5  6  1  6
  7  5  1  0
  7  8  2  0
  9 10  1  0
 10 11  2  0
 12 10  1  0
 12 13  1  0
 13 14  1  0
 15 14  1  0
 16 15  1  6
 16 17  1  0
 17  7  1  0
 18 25  1  0
 18 16  1  0
 19 18  2  0
 20 21  1  0
 21 22  1  0
 22 23  1  0
 24 23  1  6
 24 25  1  0
 24 26  1  0
 26 27  1  0
 28 26  2  0
M  END
$$$$
