LRM.pdb
     RDKit          3D

 28 27  0  0  1  0  0  0  0  0999 V2000
    8.9702  -13.9878   19.0122 C   0  0  0  0  0  0  0  0  0  0  0  0
    7.5823  -13.4290   19.3196 C   0  0  2  0  0  0  0  0  0  0  0  0
    7.6554  -11.9182   19.3495 C   0  0  0  0  0  0  0  0  0  0  0  0
    7.1597  -14.0231   20.6326 C   0  0  0  0  0  0  0  0  0  0  0  0
    7.0532  -15.5321   20.5482 C   0  0  2  0  0  0  0  0  0  0  0  0
    5.8207  -15.9288   19.8929 N   0  0  0  0  0  0  0  0  0  0  0  0
    7.0682  -16.1344   21.9127 C   0  0  0  0  0  0  0  0  0  0  0  0
    6.3124  -15.6529   22.8166 O   0  0  0  0  0  0  0  0  0  0  0  0
    7.5218  -22.7333   26.1090 N   0  0  0  0  0  0  0  0  0  0  0  0
    6.3556  -22.1137   26.6780 C   0  0  0  0  0  0  0  0  0  0  0  0
    5.9273  -22.5721   27.7998 N   0  0  0  0  0  0  0  0  0  0  0  0
    5.7354  -21.0473   25.9973 N   0  0  0  0  0  0  0  0  0  0  0  0
    6.2806  -20.5243   24.7721 C   0  0  0  0  0  0  0  0  0  0  0  0
    7.5236  -19.6782   25.0714 C   0  0  0  0  0  0  0  0  0  0  0  0
    8.1214  -19.1268   23.8032 C   0  0  0  0  0  0  0  0  0  0  0  0
    7.9684  -17.6292   23.6558 C   0  0  2  0  0  0  0  0  0  0  0  0
    7.8840  -17.2312   22.2810 N   0  0  0  0  0  0  0  0  0  0  0  0
    9.0647  -16.8768   24.3642 C   0  0  0  0  0  0  0  0  0  0  0  0
   10.1150  -16.5481   23.7594 O   0  0  0  0  0  0  0  0  0  0  0  0
    5.0902  -22.1872   28.2690 C   0  0  0  0  0  0  0  0  0  0  0  0
    9.3688  -13.9124   31.1966 S   0  0  0  0  0  0  0  0  0  0  0  0
    9.0431  -13.1961   29.5509 C   0  0  0  0  0  0  0  0  0  0  0  0
    9.9707  -14.0472   28.3254 C   0  0  0  0  0  0  0  0  0  0  0  0
    9.3215  -14.9365   27.3896 C   0  0  1  0  0  0  0  0  0  0  0  0
   10.0663  -15.7383   26.3726 N   0  0  0  0  0  0  0  0  0  0  0  0
    8.9467  -16.5228   25.7091 C   0  0  0  0  0  0  0  0  0  0  0  0
   10.8370  -16.8849   26.9670 O   0  0  0  0  0  0  0  0  0  0  0  0
   12.1332  -16.8702   27.2955 O   0  0  0  0  0  0  0  0  0  0  0  0
  2  1  1  1
  2  3  1  0
  4  2  1  0
  5  4  1  0
  5  6  1  1
  7  5  1  0
  7  8  2  0
  9 10  1  0
 10 11  2  0
 12 10  1  0
 12 13  1  0
 13 14  1  0
 15 14  1  0
 16 15  1  6
 16 17  1  0
 17  7  1  0
 18 25  1  0
 18 16  1  0
 19 18  2  0
 20 21  1  0
 21 22  1  0
 22 23  1  0
 24 23  1  6
 24 25  1  0
 24 26  1  0
 26 27  1  0
 28 26  2  0
M  END
$$$$
