LRM.pdb
     RDKit          3D

 28 27  0  0  1  0  0  0  0  0999 V2000
    6.5910  -12.4062   24.3465 C   0  0  0  0  0  0  0  0  0  0  0  0
    6.0329  -13.1266   25.5722 C   0  0  2  0  0  0  0  0  0  0  0  0
    6.0267  -12.1707   26.7447 C   0  0  0  0  0  0  0  0  0  0  0  0
    6.9035  -14.3292   25.7988 C   0  0  0  0  0  0  0  0  0  0  0  0
    6.6034  -15.4259   24.7975 C   0  0  2  0  0  0  0  0  0  0  0  0
    5.5569  -16.3034   25.2880 N   0  0  0  0  0  0  0  0  0  0  0  0
    7.8203  -16.2505   24.5450 C   0  0  0  0  0  0  0  0  0  0  0  0
    8.1124  -17.1952   25.3466 O   0  0  0  0  0  0  0  0  0  0  0  0
   15.1427  -16.2887   21.9331 N   0  0  0  0  0  0  0  0  0  0  0  0
   15.0534  -17.4640   21.1094 C   0  0  0  0  0  0  0  0  0  0  0  0
   16.1137  -18.1784   20.9772 N   0  0  0  0  0  0  0  0  0  0  0  0
   13.8301  -17.7832   20.4874 N   0  0  0  0  0  0  0  0  0  0  0  0
   12.6701  -16.9455   20.6449 C   0  0  0  0  0  0  0  0  0  0  0  0
   11.9593  -17.2779   21.9621 C   0  0  0  0  0  0  0  0  0  0  0  0
   10.6954  -16.4719   22.1135 C   0  0  0  0  0  0  0  0  0  0  0  0
    9.9522  -16.7367   23.4040 C   0  0  2  0  0  0  0  0  0  0  0  0
    8.6939  -16.0512   23.4488 N   0  0  0  0  0  0  0  0  0  0  0  0
   10.7857  -16.4048   24.6144 C   0  0  0  0  0  0  0  0  0  0  0  0
   11.1146  -15.2189   24.8643 O   0  0  0  0  0  0  0  0  0  0  0  0
   16.1092  -19.0846   20.4794 C   0  0  0  0  0  0  0  0  0  0  0  0
    9.1789  -13.7065   28.6110 S   0  0  0  0  0  0  0  0  0  0  0  0
   10.2212  -14.7436   29.6905 C   0  0  0  0  0  0  0  0  0  0  0  0
   10.4445  -16.3316   28.9729 C   0  0  0  0  0  0  0  0  0  0  0  0
   10.5398  -16.4901   27.5398 C   0  0  1  0  0  0  0  0  0  0  0  0
   11.7622  -17.0074   26.8541 N   0  0  0  0  0  0  0  0  0  0  0  0
   11.2158  -17.4013   25.4920 C   0  0  0  0  0  0  0  0  0  0  0  0
   12.1865  -18.3662   27.3394 O   0  0  0  0  0  0  0  0  0  0  0  0
   13.1036  -18.6098   28.2817 O   0  0  0  0  0  0  0  0  0  0  0  0
  2  1  1  6
  2  3  1  0
  4  2  1  0
  5  4  1  0
  5  6  1  1
  7  5  1  0
  7  8  2  0
  9 10  1  0
 10 11  2  0
 12 10  1  0
 12 13  1  0
 13 14  1  0
 15 14  1  0
 16 15  1  6
 16 17  1  0
 17  7  1  0
 18 25  1  0
 18 16  1  0
 19 18  2  0
 20 21  1  0
 21 22  1  0
 22 23  1  0
 24 23  1  6
 24 25  1  0
 24 26  1  0
 26 27  1  0
 28 26  2  0
M  END
$$$$
