LRM.pdb
     RDKit          3D

 28 27  0  0  1  0  0  0  0  0999 V2000
    6.7605  -22.8727   22.7982 C   0  0  0  0  0  0  0  0  0  0  0  0
    6.6092  -21.6367   21.9137 C   0  0  2  0  0  0  0  0  0  0  0  0
    6.3450  -22.0787   20.4911 C   0  0  0  0  0  0  0  0  0  0  0  0
    7.8779  -20.8460   22.0575 C   0  0  0  0  0  0  0  0  0  0  0  0
    7.7101  -19.7048   23.0398 C   0  0  2  0  0  0  0  0  0  0  0  0
    6.3063  -19.3987   23.2437 N   0  0  0  0  0  0  0  0  0  0  0  0
    8.3846  -18.4750   22.5327 C   0  0  0  0  0  0  0  0  0  0  0  0
    9.6200  -18.5198   22.2293 O   0  0  0  0  0  0  0  0  0  0  0  0
    7.3763  -14.2538   17.0000 N   0  0  0  0  0  0  0  0  0  0  0  0
    8.5246  -13.5208   17.4601 C   0  0  0  0  0  0  0  0  0  0  0  0
    9.6212  -13.6626   16.8048 N   0  0  0  0  0  0  0  0  0  0  0  0
    8.4088  -12.6903   18.5925 N   0  0  0  0  0  0  0  0  0  0  0  0
    7.5802  -13.0605   19.7097 C   0  0  0  0  0  0  0  0  0  0  0  0
    8.3966  -13.8759   20.7194 C   0  0  0  0  0  0  0  0  0  0  0  0
    7.6526  -15.1163   21.1412 C   0  0  0  0  0  0  0  0  0  0  0  0
    8.4825  -16.0772   21.9633 C   0  0  2  0  0  0  0  0  0  0  0  0
    7.7305  -17.2313   22.3606 N   0  0  0  0  0  0  0  0  0  0  0  0
    9.1043  -15.4057   23.1601 C   0  0  0  0  0  0  0  0  0  0  0  0
    9.8277  -14.3883   23.0242 O   0  0  0  0  0  0  0  0  0  0  0  0
   10.4757  -13.1293   17.0382 C   0  0  0  0  0  0  0  0  0  0  0  0
    6.5709  -11.4136   25.8259 S   0  0  0  0  0  0  0  0  0  0  0  0
    6.9186  -12.2517   27.4083 C   0  0  0  0  0  0  0  0  0  0  0  0
    8.1867  -13.4486   27.1942 C   0  0  0  0  0  0  0  0  0  0  0  0
    8.2385  -14.2683   26.0052 C   0  0  1  0  0  0  0  0  0  0  0  0
    9.4229  -15.1015   25.6378 N   0  0  0  0  0  0  0  0  0  0  0  0
    8.8957  -15.8917   24.4518 C   0  0  0  0  0  0  0  0  0  0  0  0
    9.6676  -16.2401   26.5893 O   0  0  0  0  0  0  0  0  0  0  0  0
   10.6529  -16.3090   27.4909 O   0  0  0  0  0  0  0  0  0  0  0  0
  2  1  1  1
  2  3  1  0
  4  2  1  0
  5  4  1  0
  5  6  1  6
  7  5  1  0
  7  8  2  0
  9 10  1  0
 10 11  2  0
 12 10  1  0
 12 13  1  0
 13 14  1  0
 15 14  1  0
 16 15  1  1
 16 17  1  0
 17  7  1  0
 18 25  1  0
 18 16  1  0
 19 18  2  0
 20 21  1  0
 21 22  1  0
 22 23  1  0
 24 23  1  6
 24 25  1  0
 24 26  1  0
 26 27  1  0
 28 26  2  0
M  END
$$$$
