LRM.pdb
     RDKit          3D

 28 27  0  0  1  0  0  0  0  0999 V2000
    9.2450  -12.9698   18.7940 C   0  0  0  0  0  0  0  0  0  0  0  0
    7.7490  -13.2461   18.9292 C   0  0  2  0  0  0  0  0  0  0  0  0
    6.9820  -11.9959   18.5585 C   0  0  0  0  0  0  0  0  0  0  0  0
    7.5172  -13.6786   20.3486 C   0  0  0  0  0  0  0  0  0  0  0  0
    8.3406  -14.9022   20.6955 C   0  0  2  0  0  0  0  0  0  0  0  0
    8.1764  -15.9385   19.6931 N   0  0  0  0  0  0  0  0  0  0  0  0
    7.9191  -15.4597   22.0131 C   0  0  0  0  0  0  0  0  0  0  0  0
    7.8969  -14.7005   23.0346 O   0  0  0  0  0  0  0  0  0  0  0  0
    5.6733  -23.1801   23.4807 N   0  0  0  0  0  0  0  0  0  0  0  0
    6.7667  -22.7712   24.3205 C   0  0  0  0  0  0  0  0  0  0  0  0
    7.8363  -23.4833   24.2914 N   0  0  0  0  0  0  0  0  0  0  0  0
    6.6280  -21.6268   25.1307 N   0  0  0  0  0  0  0  0  0  0  0  0
    5.6831  -20.5906   24.8059 C   0  0  0  0  0  0  0  0  0  0  0  0
    6.3603  -19.2179   24.8949 C   0  0  0  0  0  0  0  0  0  0  0  0
    6.5692  -18.6276   23.5247 C   0  0  0  0  0  0  0  0  0  0  0  0
    7.2718  -17.2881   23.5366 C   0  0  2  0  0  0  0  0  0  0  0  0
    7.5320  -16.8069   22.2114 N   0  0  0  0  0  0  0  0  0  0  0  0
    8.5384  -17.3217   24.3519 C   0  0  0  0  0  0  0  0  0  0  0  0
    9.6168  -17.7243   23.8501 O   0  0  0  0  0  0  0  0  0  0  0  0
    8.6360  -23.3027   24.9214 C   0  0  0  0  0  0  0  0  0  0  0  0
   10.3347  -13.7949   30.8898 S   0  0  0  0  0  0  0  0  0  0  0  0
   10.1128  -13.4924   29.1047 C   0  0  0  0  0  0  0  0  0  0  0  0
   10.5056  -14.9410   28.1914 C   0  0  0  0  0  0  0  0  0  0  0  0
    9.6045  -15.4470   27.1814 C   0  0  1  0  0  0  0  0  0  0  0  0
    9.8842  -16.6748   26.3775 N   0  0  0  0  0  0  0  0  0  0  0  0
    8.5520  -16.9073   25.6846 C   0  0  0  0  0  0  0  0  0  0  0  0
    9.9406  -17.9286   27.2062 O   0  0  0  0  0  0  0  0  0  0  0  0
   11.0511  -18.5091   27.6733 O   0  0  0  0  0  0  0  0  0  0  0  0
  2  1  1  1
  2  3  1  0
  4  2  1  0
  5  4  1  0
  5  6  1  6
  7  5  1  0
  7  8  2  0
  9 10  1  0
 10 11  2  0
 12 10  1  0
 12 13  1  0
 13 14  1  0
 15 14  1  0
 16 15  1  6
 16 17  1  0
 17  7  1  0
 18 25  1  0
 18 16  1  0
 19 18  2  0
 20 21  1  0
 21 22  1  0
 22 23  1  0
 24 23  1  6
 24 25  1  0
 24 26  1  0
 26 27  1  0
 28 26  2  0
M  END
$$$$
