LRM.pdb
     RDKit          3D

 28 27  0  0  1  0  0  0  0  0999 V2000
    8.6836  -22.6649   20.4708 C   0  0  0  0  0  0  0  0  0  0  0  0
    8.1109  -21.4314   19.7757 C   0  0  2  0  0  0  0  0  0  0  0  0
    7.8410  -21.7647   18.3249 C   0  0  0  0  0  0  0  0  0  0  0  0
    9.1194  -20.3322   19.9485 C   0  0  0  0  0  0  0  0  0  0  0  0
    8.9896  -19.6706   21.3052 C   0  0  2  0  0  0  0  0  0  0  0  0
    7.6151  -19.7055   21.7695 N   0  0  0  0  0  0  0  0  0  0  0  0
    9.4197  -18.2441   21.2347 C   0  0  0  0  0  0  0  0  0  0  0  0
   10.6198  -17.9686   20.9119 O   0  0  0  0  0  0  0  0  0  0  0  0
    6.9287  -13.9747   16.9971 N   0  0  0  0  0  0  0  0  0  0  0  0
    8.2693  -13.5399   17.2824 C   0  0  0  0  0  0  0  0  0  0  0  0
    9.2224  -14.0668   16.5998 N   0  0  0  0  0  0  0  0  0  0  0  0
    8.4858  -12.5712   18.2825 N   0  0  0  0  0  0  0  0  0  0  0  0
    7.8360  -12.6611   19.5638 C   0  0  0  0  0  0  0  0  0  0  0  0
    8.6952  -13.4852   20.5298 C   0  0  0  0  0  0  0  0  0  0  0  0
    8.1847  -14.8985   20.6373 C   0  0  0  0  0  0  0  0  0  0  0  0
    9.0772  -15.8110   21.4489 C   0  0  2  0  0  0  0  0  0  0  0  0
    8.5652  -17.1489   21.5076 N   0  0  0  0  0  0  0  0  0  0  0  0
    9.3265  -15.2723   22.8336 C   0  0  0  0  0  0  0  0  0  0  0  0
    9.8470  -14.1418   23.0007 O   0  0  0  0  0  0  0  0  0  0  0  0
   10.2112  -13.7957   16.7332 C   0  0  0  0  0  0  0  0  0  0  0  0
    6.2767  -10.9680   26.2886 S   0  0  0  0  0  0  0  0  0  0  0  0
    6.6486  -12.6720   26.8228 C   0  0  0  0  0  0  0  0  0  0  0  0
    7.7368  -13.4418   25.6782 C   0  0  0  0  0  0  0  0  0  0  0  0
    8.0191  -14.8566   25.7611 C   0  0  2  0  0  0  0  0  0  0  0  0
    9.3224  -15.4559   25.3434 N   0  0  0  0  0  0  0  0  0  0  0  0
    8.9874  -16.0101   23.9688 C   0  0  0  0  0  0  0  0  0  0  0  0
    9.6364  -16.7470   26.0478 O   0  0  0  0  0  0  0  0  0  0  0  0
   10.3607  -16.8734   27.1648 O   0  0  0  0  0  0  0  0  0  0  0  0
  2  1  1  1
  2  3  1  0
  4  2  1  0
  5  4  1  0
  5  6  1  6
  7  5  1  0
  7  8  2  0
  9 10  1  0
 10 11  2  0
 12 10  1  0
 12 13  1  0
 13 14  1  0
 15 14  1  0
 16 15  1  1
 16 17  1  0
 17  7  1  0
 18 25  1  0
 18 16  1  0
 19 18  2  0
 20 21  1  0
 21 22  1  0
 22 23  1  0
 24 23  1  6
 24 25  1  0
 24 26  1  0
 26 27  1  0
 28 26  2  0
M  END
$$$$
