LRM.pdb
     RDKit          3D

 28 27  0  0  1  0  0  0  0  0999 V2000
    6.6129  -13.4663   20.3488 C   0  0  0  0  0  0  0  0  0  0  0  0
    8.0687  -13.6426   19.9217 C   0  0  2  0  0  0  0  0  0  0  0  0
    8.4323  -12.5444   18.9468 C   0  0  0  0  0  0  0  0  0  0  0  0
    8.1800  -15.0171   19.3270 C   0  0  0  0  0  0  0  0  0  0  0  0
    7.2813  -16.0043   20.0435 C   0  0  2  0  0  0  0  0  0  0  0  0
    6.2782  -15.3137   20.8327 N   0  0  0  0  0  0  0  0  0  0  0  0
    8.0798  -16.8681   20.9605 C   0  0  0  0  0  0  0  0  0  0  0  0
    8.1916  -18.1108   20.7089 O   0  0  0  0  0  0  0  0  0  0  0  0
   13.8352  -18.5840   18.1021 N   0  0  0  0  0  0  0  0  0  0  0  0
   14.0176  -18.7658   19.5168 C   0  0  0  0  0  0  0  0  0  0  0  0
   15.1635  -19.1871   19.9185 N   0  0  0  0  0  0  0  0  0  0  0  0
   12.9528  -18.4823   20.3951 N   0  0  0  0  0  0  0  0  0  0  0  0
   13.1932  -18.0319   21.7409 C   0  0  0  0  0  0  0  0  0  0  0  0
   12.0365  -17.1412   22.2093 C   0  0  0  0  0  0  0  0  0  0  0  0
   10.7102  -17.8280   22.0116 C   0  0  0  0  0  0  0  0  0  0  0  0
    9.5961  -17.2638   22.8651 C   0  0  2  0  0  0  0  0  0  0  0  0
    8.7385  -16.3902   22.1190 N   0  0  0  0  0  0  0  0  0  0  0  0
   10.1221  -16.5736   24.0967 C   0  0  0  0  0  0  0  0  0  0  0  0
   10.9247  -15.6124   24.0031 O   0  0  0  0  0  0  0  0  0  0  0  0
   15.4145  -19.2307   20.9206 C   0  0  0  0  0  0  0  0  0  0  0  0
    8.2640  -11.7441   26.9063 S   0  0  0  0  0  0  0  0  0  0  0  0
    6.9939  -12.9559   26.4105 C   0  0  0  0  0  0  0  0  0  0  0  0
    7.7191  -14.2335   25.4469 C   0  0  0  0  0  0  0  0  0  0  0  0
    8.0276  -15.5183   26.0320 C   0  0  2  0  0  0  0  0  0  0  0  0
    9.4103  -15.9279   26.4225 N   0  0  0  0  0  0  0  0  0  0  0  0
    9.7345  -16.9795   25.3746 C   0  0  0  0  0  0  0  0  0  0  0  0
    9.4491  -16.7977   27.6488 O   0  0  0  0  0  0  0  0  0  0  0  0
    9.7262  -16.3875   28.8911 O   0  0  0  0  0  0  0  0  0  0  0  0
  2  1  1  6
  2  3  1  0
  4  2  1  0
  5  4  1  0
  5  6  1  1
  7  5  1  0
  7  8  2  0
  9 10  1  0
 10 11  2  0
 12 10  1  0
 12 13  1  0
 13 14  1  0
 15 14  1  0
 16 15  1  6
 16 17  1  0
 17  7  1  0
 18 25  1  0
 18 16  1  0
 19 18  2  0
 20 21  1  0
 21 22  1  0
 22 23  1  0
 24 23  1  6
 24 25  1  0
 24 26  1  0
 26 27  1  0
 28 26  2  0
M  END
$$$$
