LRM.pdb
     RDKit          3D

 28 27  0  0  1  0  0  0  0  0999 V2000
    9.0573  -12.9926   18.1665 C   0  0  0  0  0  0  0  0  0  0  0  0
    7.7784  -13.7951   17.9361 C   0  0  2  0  0  0  0  0  0  0  0  0
    6.7595  -12.9115   17.2506 C   0  0  0  0  0  0  0  0  0  0  0  0
    7.3247  -14.2792   19.2834 C   0  0  0  0  0  0  0  0  0  0  0  0
    8.4158  -15.0606   19.9866 C   0  0  2  0  0  0  0  0  0  0  0  0
    8.8269  -16.2047   19.1940 N   0  0  0  0  0  0  0  0  0  0  0  0
    7.9337  -15.5595   21.3069 C   0  0  0  0  0  0  0  0  0  0  0  0
    7.4644  -14.7331   22.1537 O   0  0  0  0  0  0  0  0  0  0  0  0
    7.5580  -22.5789   25.9102 N   0  0  0  0  0  0  0  0  0  0  0  0
    6.7325  -21.7357   26.7320 C   0  0  0  0  0  0  0  0  0  0  0  0
    6.6080  -22.0528   27.9713 N   0  0  0  0  0  0  0  0  0  0  0  0
    6.1007  -20.6140   26.1593 N   0  0  0  0  0  0  0  0  0  0  0  0
    6.2919  -20.2745   24.7736 C   0  0  0  0  0  0  0  0  0  0  0  0
    7.4039  -19.2275   24.6398 C   0  0  0  0  0  0  0  0  0  0  0  0
    7.5751  -18.8000   23.2053 C   0  0  0  0  0  0  0  0  0  0  0  0
    7.5210  -17.3021   23.0029 C   0  0  2  0  0  0  0  0  0  0  0  0
    7.9617  -16.9213   21.6929 N   0  0  0  0  0  0  0  0  0  0  0  0
    8.2924  -16.5604   24.0635 C   0  0  0  0  0  0  0  0  0  0  0  0
    9.5427  -16.4616   23.9999 O   0  0  0  0  0  0  0  0  0  0  0  0
    6.1000  -21.4551   28.6449 C   0  0  0  0  0  0  0  0  0  0  0  0
    7.0959   -9.7251   27.3360 S   0  0  0  0  0  0  0  0  0  0  0  0
    6.4784  -11.2053   26.4671 C   0  0  0  0  0  0  0  0  0  0  0  0
    7.6396  -12.5166   26.6040 C   0  0  0  0  0  0  0  0  0  0  0  0
    7.3614  -13.8149   26.0338 C   0  0  2  0  0  0  0  0  0  0  0  0
    8.3750  -14.9102   25.9616 N   0  0  0  0  0  0  0  0  0  0  0  0
    7.6435  -15.9622   25.1447 C   0  0  0  0  0  0  0  0  0  0  0  0
    8.5208  -15.6719   27.2501 O   0  0  0  0  0  0  0  0  0  0  0  0
    9.4443  -15.4489   28.1912 O   0  0  0  0  0  0  0  0  0  0  0  0
  2  1  1  1
  2  3  1  0
  4  2  1  0
  5  4  1  0
  5  6  1  6
  7  5  1  0
  7  8  2  0
  9 10  1  0
 10 11  2  0
 12 10  1  0
 12 13  1  0
 13 14  1  0
 15 14  1  0
 16 15  1  1
 16 17  1  0
 17  7  1  0
 18 25  1  0
 18 16  1  0
 19 18  2  0
 20 21  1  0
 21 22  1  0
 22 23  1  0
 24 23  1  6
 24 25  1  0
 24 26  1  0
 26 27  1  0
 28 26  2  0
M  END
$$$$
