RGH.pdb
     RDKit          3D

 26 26  0  0  1  0  0  0  0  0999 V2000
   28.1491  -21.6006  -15.5590 N   0  0  0  0  0  0  0  0  0  0  0  0
   27.8763  -22.7866  -16.2754 C   0  0  0  0  0  0  0  0  0  0  0  0
   28.7630  -23.7305  -16.2746 N   0  0  0  0  0  0  0  0  0  0  0  0
   26.6635  -23.0031  -17.0077 N   0  0  0  0  0  0  0  0  0  0  0  0
   25.3659  -22.8441  -16.4124 C   0  0  0  0  0  0  0  0  0  0  0  0
   25.0917  -21.4883  -15.8753 C   0  0  0  0  0  0  0  0  0  0  0  0
   23.7228  -21.3152  -15.3175 C   0  0  0  0  0  0  0  0  0  0  0  0
   23.1194  -22.6341  -14.8774 C   0  0  2  0  0  0  0  0  0  0  0  0
   22.9294  -23.5769  -15.9212 N   0  0  0  0  0  0  0  0  0  0  0  0
   21.8640  -22.3631  -14.1687 C   0  0  0  0  0  0  0  0  0  0  0  0
   21.8771  -21.5910  -13.1860 O   0  0  0  0  0  0  0  0  0  0  0  0
   28.6966  -24.5593  -16.8771 N   0  0  0  0  0  0  0  0  0  0  0  0
   20.6643  -22.9763  -14.6043 C   0  0  0  0  0  0  0  0  0  0  0  0
   19.4222  -22.2884  -14.7720 C   0  0  0  0  0  0  0  0  0  0  0  0
   18.4164  -22.7581  -13.8138 O   0  0  0  0  0  0  0  0  0  0  0  0
   18.1073  -23.9936  -13.8367 N   0  0  0  0  0  0  0  0  0  0  0  0
   17.8039  -21.9090  -12.8943 C   0  0  1  0  0  0  0  0  0  0  0  0
   16.7433  -22.4103  -12.0175 C   0  0  0  0  0  0  0  0  0  0  0  0
   17.1598  -22.3068  -10.5894 C   0  0  0  0  0  0  0  0  0  0  0  0
   18.0032  -23.4553  -10.2149 C   0  0  0  0  0  0  0  0  0  0  0  0
   18.3947  -24.5550  -10.9419 N   0  0  0  0  0  0  0  0  0  0  0  0
   19.1571  -25.3826  -10.1931 C   0  0  0  0  0  0  0  0  0  0  0  0
   19.2511  -24.8096   -8.9879 N   0  0  0  0  0  0  0  0  0  0  0  0
   18.5647  -23.6542   -8.9856 C   0  0  0  0  0  0  0  0  0  0  0  0
   15.5135  -21.6640  -12.3209 O   0  0  0  0  0  0  0  0  0  0  0  0
   14.3004  -22.3126  -12.3641 O   0  0  0  0  0  0  0  0  0  0  0  0
  2  1  1  0
  3  2  2  0
  4  2  1  0
  5  4  1  0
  6  5  1  0
  6  7  1  0
  7  8  1  0
  8  9  1  6
 10  8  1  0
 11 10  2  0
 12 10  1  0
 13 12  1  0
 14 13  1  0
 14 16  1  0
 15 14  2  0
 17 16  1  0
 17 24  1  0
 17 18  1  1
 19 18  1  0
 19 20  2  0
 21 20  1  0
 22 21  1  0
 23 22  2  0
 23 19  1  0
 24 26  2  0
 24 25  1  0
M  END
$$$$
