RGH.pdb
     RDKit          3D

 26 26  0  0  1  0  0  0  0  0999 V2000
   22.8180  -16.2836  -18.3518 N   0  0  0  0  0  0  0  0  0  0  0  0
   21.9150  -17.3198  -18.0275 C   0  0  0  0  0  0  0  0  0  0  0  0
   20.8767  -17.0359  -17.3075 N   0  0  0  0  0  0  0  0  0  0  0  0
   22.0872  -18.6769  -18.4550 N   0  0  0  0  0  0  0  0  0  0  0  0
   23.3809  -19.2426  -18.7192 C   0  0  0  0  0  0  0  0  0  0  0  0
   24.3427  -19.1438  -17.5936 C   0  0  0  0  0  0  0  0  0  0  0  0
   25.6773  -19.7399  -17.8736 C   0  0  0  0  0  0  0  0  0  0  0  0
   25.7916  -21.1518  -17.3342 C   0  0  2  0  0  0  0  0  0  0  0  0
   24.5516  -21.7766  -17.0405 N   0  0  0  0  0  0  0  0  0  0  0  0
   26.6720  -21.1365  -16.1609 C   0  0  0  0  0  0  0  0  0  0  0  0
   27.7249  -20.4643  -16.2017 O   0  0  0  0  0  0  0  0  0  0  0  0
   20.1359  -17.7170  -17.1033 N   0  0  0  0  0  0  0  0  0  0  0  0
   26.3193  -21.8787  -15.0078 C   0  0  0  0  0  0  0  0  0  0  0  0
   27.0344  -21.8340  -13.7704 C   0  0  0  0  0  0  0  0  0  0  0  0
   26.3425  -21.0008  -12.7819 O   0  0  0  0  0  0  0  0  0  0  0  0
   26.1266  -19.7816  -13.0811 N   0  0  0  0  0  0  0  0  0  0  0  0
   25.9190  -21.4958  -11.5500 C   0  0  1  0  0  0  0  0  0  0  0  0
   25.2900  -20.6054  -10.5722 C   0  0  0  0  0  0  0  0  0  0  0  0
   23.9172  -21.0854  -10.2424 C   0  0  0  0  0  0  0  0  0  0  0  0
   23.0203  -20.9133  -11.3985 C   0  0  0  0  0  0  0  0  0  0  0  0
   23.2670  -20.4223  -12.6592 N   0  0  0  0  0  0  0  0  0  0  0  0
   22.1403  -20.4212  -13.4060 C   0  0  0  0  0  0  0  0  0  0  0  0
   21.1752  -20.9118  -12.6202 N   0  0  0  0  0  0  0  0  0  0  0  0
   21.6873  -21.2110  -11.4142 C   0  0  0  0  0  0  0  0  0  0  0  0
   26.1743  -20.5211   -9.4008 O   0  0  0  0  0  0  0  0  0  0  0  0
   25.9090  -19.6215   -8.3936 O   0  0  0  0  0  0  0  0  0  0  0  0
  2  1  1  0
  3  2  2  0
  4  2  1  0
  5  4  1  0
  6  5  1  0
  6  7  1  0
  7  8  1  0
  8  9  1  1
 10  8  1  0
 11 10  2  0
 12 10  1  0
 13 12  1  0
 14 13  1  0
 14 16  1  0
 15 14  2  0
 17 16  1  0
 17 24  1  0
 17 18  1  1
 19 18  1  0
 19 20  2  0
 21 20  1  0
 22 21  1  0
 23 22  2  0
 23 19  1  0
 24 26  2  0
 24 25  1  0
M  END
$$$$
