RGH.pdb
     RDKit          3D

 26 26  0  0  1  0  0  0  0  0999 V2000
   29.2524  -24.7549  -18.5019 N   0  0  0  0  0  0  0  0  0  0  0  0
   29.6606  -26.0394  -18.0803 C   0  0  0  0  0  0  0  0  0  0  0  0
   30.6521  -26.6071  -18.6900 N   0  0  0  0  0  0  0  0  0  0  0  0
   29.0328  -26.7526  -17.0074 N   0  0  0  0  0  0  0  0  0  0  0  0
   27.8383  -26.2804  -16.3641 C   0  0  0  0  0  0  0  0  0  0  0  0
   26.7229  -25.9567  -17.2877 C   0  0  0  0  0  0  0  0  0  0  0  0
   25.9961  -24.7013  -16.9548 C   0  0  0  0  0  0  0  0  0  0  0  0
   25.6830  -24.6033  -15.4750 C   0  0  2  0  0  0  0  0  0  0  0  0
   24.7598  -25.5705  -14.9989 N   0  0  0  0  0  0  0  0  0  0  0  0
   25.2269  -23.2406  -15.1806 C   0  0  0  0  0  0  0  0  0  0  0  0
   25.8208  -22.2754  -15.7076 O   0  0  0  0  0  0  0  0  0  0  0  0
   31.0774  -27.4842  -18.3673 N   0  0  0  0  0  0  0  0  0  0  0  0
   24.1288  -23.0397  -14.3094 C   0  0  0  0  0  0  0  0  0  0  0  0
   23.5523  -21.7637  -14.0201 C   0  0  0  0  0  0  0  0  0  0  0  0
   22.1305  -21.7252  -14.3769 O   0  0  0  0  0  0  0  0  0  0  0  0
   21.6846  -22.6459  -15.1359 N   0  0  0  0  0  0  0  0  0  0  0  0
   21.2691  -20.7319  -13.9153 C   0  0  1  0  0  0  0  0  0  0  0  0
   19.8518  -20.7529  -14.2835 C   0  0  0  0  0  0  0  0  0  0  0  0
   19.0037  -20.4449  -13.0962 C   0  0  0  0  0  0  0  0  0  0  0  0
   18.9341  -21.6101  -12.1973 C   0  0  0  0  0  0  0  0  0  0  0  0
   19.5466  -22.8390  -12.2735 N   0  0  0  0  0  0  0  0  0  0  0  0
   19.1815  -23.6257  -11.2367 C   0  0  0  0  0  0  0  0  0  0  0  0
   18.3356  -22.8972  -10.4996 N   0  0  0  0  0  0  0  0  0  0  0  0
   18.1774  -21.6872  -11.0626 C   0  0  0  0  0  0  0  0  0  0  0  0
   19.6584  -19.8126  -15.3968 O   0  0  0  0  0  0  0  0  0  0  0  0
   18.7317  -20.0800  -16.3786 O   0  0  0  0  0  0  0  0  0  0  0  0
  2  1  1  0
  3  2  2  0
  4  2  1  0
  5  4  1  0
  6  5  1  0
  6  7  1  0
  7  8  1  0
  8  9  1  6
 10  8  1  0
 11 10  2  0
 12 10  1  0
 13 12  1  0
 14 13  1  0
 14 16  1  0
 15 14  2  0
 17 16  1  0
 17 24  1  0
 17 18  1  6
 19 18  1  0
 19 20  2  0
 21 20  1  0
 22 21  1  0
 23 22  2  0
 23 19  1  0
 24 26  2  0
 24 25  1  0
M  END
$$$$
