RGH.pdb
     RDKit          3D

 26 26  0  0  1  0  0  0  0  0999 V2000
   30.9494  -22.9348  -19.4993 N   0  0  0  0  0  0  0  0  0  0  0  0
   30.4578  -23.0928  -18.1849 C   0  0  0  0  0  0  0  0  0  0  0  0
   30.9537  -24.0332  -17.4454 N   0  0  0  0  0  0  0  0  0  0  0  0
   29.4335  -22.2634  -17.6221 N   0  0  0  0  0  0  0  0  0  0  0  0
   28.7038  -21.3040  -18.4036 C   0  0  0  0  0  0  0  0  0  0  0  0
   27.7342  -20.4858  -17.6341 C   0  0  0  0  0  0  0  0  0  0  0  0
   28.2891  -19.8868  -16.3898 C   0  0  0  0  0  0  0  0  0  0  0  0
   27.4040  -20.1541  -15.1887 C   0  0  2  0  0  0  0  0  0  0  0  0
   26.6986  -21.3848  -15.2341 N   0  0  0  0  0  0  0  0  0  0  0  0
   26.4883  -19.0208  -15.0185 C   0  0  0  0  0  0  0  0  0  0  0  0
   26.9622  -17.8693  -14.9114 O   0  0  0  0  0  0  0  0  0  0  0  0
   30.6016  -24.2481  -16.5050 N   0  0  0  0  0  0  0  0  0  0  0  0
   25.0910  -19.2461  -14.9776 C   0  0  0  0  0  0  0  0  0  0  0  0
   24.1189  -18.2338  -14.7043 C   0  0  0  0  0  0  0  0  0  0  0  0
   23.2507  -17.9986  -15.8624 O   0  0  0  0  0  0  0  0  0  0  0  0
   23.7503  -18.1676  -17.0219 N   0  0  0  0  0  0  0  0  0  0  0  0
   21.9197  -17.6069  -15.7334 C   0  0  1  0  0  0  0  0  0  0  0  0
   21.0799  -17.4392  -16.9215 C   0  0  0  0  0  0  0  0  0  0  0  0
   19.7050  -17.9543  -16.6608 C   0  0  0  0  0  0  0  0  0  0  0  0
   19.7196  -19.4227  -16.5416 C   0  0  0  0  0  0  0  0  0  0  0  0
   20.7601  -20.3183  -16.6217 N   0  0  0  0  0  0  0  0  0  0  0  0
   20.3176  -21.5871  -16.4751 C   0  0  0  0  0  0  0  0  0  0  0  0
   18.9941  -21.4995  -16.3016 N   0  0  0  0  0  0  0  0  0  0  0  0
   18.6211  -20.2089  -16.3391 C   0  0  0  0  0  0  0  0  0  0  0  0
   21.1075  -16.0188  -17.2996 O   0  0  0  0  0  0  0  0  0  0  0  0
   20.9094  -15.6449  -18.6092 O   0  0  0  0  0  0  0  0  0  0  0  0
  2  1  1  0
  3  2  2  0
  4  2  1  0
  5  4  1  0
  6  5  1  0
  6  7  1  0
  7  8  1  0
  8  9  1  6
 10  8  1  0
 11 10  2  0
 12 10  1  0
 13 12  1  0
 14 13  1  0
 14 16  1  0
 15 14  2  0
 17 16  1  0
 17 24  1  0
 17 18  1  6
 19 18  1  0
 19 20  2  0
 21 20  1  0
 22 21  1  0
 23 22  2  0
 23 19  1  0
 24 26  2  0
 24 25  1  0
M  END
$$$$
