RGH.pdb
     RDKit          3D

 26 26  0  0  1  0  0  0  0  0999 V2000
   26.5246  -22.7770  -14.3477 N   0  0  0  0  0  0  0  0  0  0  0  0
   27.3402  -21.7238  -13.8789 C   0  0  0  0  0  0  0  0  0  0  0  0
   27.7557  -20.8362  -14.7254 N   0  0  0  0  0  0  0  0  0  0  0  0
   27.7352  -21.5837  -12.5083 N   0  0  0  0  0  0  0  0  0  0  0  0
   26.8100  -21.7406  -11.4207 C   0  0  0  0  0  0  0  0  0  0  0  0
   26.0664  -20.5093  -11.0564 C   0  0  0  0  0  0  0  0  0  0  0  0
   24.6297  -20.7323  -10.7383 C   0  0  0  0  0  0  0  0  0  0  0  0
   23.8595  -21.2567  -11.9339 C   0  0  2  0  0  0  0  0  0  0  0  0
   24.5784  -21.2367  -13.1575 N   0  0  0  0  0  0  0  0  0  0  0  0
   22.5995  -20.5137  -12.0436 C   0  0  0  0  0  0  0  0  0  0  0  0
   21.7981  -20.5343  -11.0848 O   0  0  0  0  0  0  0  0  0  0  0  0
   28.4283  -20.1008  -14.4781 N   0  0  0  0  0  0  0  0  0  0  0  0
   22.3110  -19.7897  -13.2258 C   0  0  0  0  0  0  0  0  0  0  0  0
   21.0636  -19.1432  -13.4911 C   0  0  0  0  0  0  0  0  0  0  0  0
   21.1222  -18.3519  -14.7243 O   0  0  0  0  0  0  0  0  0  0  0  0
   20.8336  -17.1135  -14.6483 N   0  0  0  0  0  0  0  0  0  0  0  0
   21.4814  -18.9041  -15.9522 C   0  0  1  0  0  0  0  0  0  0  0  0
   21.6471  -18.0470  -17.1281 C   0  0  0  0  0  0  0  0  0  0  0  0
   23.0033  -18.2348  -17.7189 C   0  0  0  0  0  0  0  0  0  0  0  0
   24.0453  -17.9308  -16.7226 C   0  0  0  0  0  0  0  0  0  0  0  0
   25.0835  -18.6980  -16.2486 N   0  0  0  0  0  0  0  0  0  0  0  0
   25.7922  -18.0269  -15.3135 C   0  0  0  0  0  0  0  0  0  0  0  0
   25.2046  -16.8313  -15.1917 N   0  0  0  0  0  0  0  0  0  0  0  0
   24.1564  -16.7589  -16.0296 C   0  0  0  0  0  0  0  0  0  0  0  0
   20.5563  -18.3486  -18.0665 O   0  0  0  0  0  0  0  0  0  0  0  0
   19.6455  -19.3390  -17.7772 O   0  0  0  0  0  0  0  0  0  0  0  0
  2  1  1  0
  3  2  2  0
  4  2  1  0
  5  4  1  0
  6  5  1  0
  6  7  1  0
  7  8  1  0
  8  9  1  6
 10  8  1  0
 11 10  2  0
 12 10  1  0
 13 12  1  0
 14 13  1  0
 14 16  1  0
 15 14  2  0
 17 16  1  0
 17 24  1  0
 17 18  1  6
 19 18  1  0
 19 20  2  0
 21 20  1  0
 22 21  1  0
 23 22  2  0
 23 19  1  0
 24 26  2  0
 24 25  1  0
M  END
$$$$
