RGH.pdb
     RDKit          3D

 26 26  0  0  1  0  0  0  0  0999 V2000
   31.7095  -30.0453  -18.9414 N   0  0  0  0  0  0  0  0  0  0  0  0
   31.8588  -29.9733  -17.5390 C   0  0  0  0  0  0  0  0  0  0  0  0
   31.7973  -28.8133  -16.9667 N   0  0  0  0  0  0  0  0  0  0  0  0
   32.0762  -31.1221  -16.7101 N   0  0  0  0  0  0  0  0  0  0  0  0
   32.1707  -32.4515  -17.2462 C   0  0  0  0  0  0  0  0  0  0  0  0
   30.8874  -33.0178  -17.7303 C   0  0  0  0  0  0  0  0  0  0  0  0
   30.4973  -34.2975  -17.0782 C   0  0  0  0  0  0  0  0  0  0  0  0
   29.2929  -34.9298  -17.7466 C   0  0  2  0  0  0  0  0  0  0  0  0
   29.3786  -35.0200  -19.1604 N   0  0  0  0  0  0  0  0  0  0  0  0
   28.0890  -34.2022  -17.3308 C   0  0  0  0  0  0  0  0  0  0  0  0
   27.6645  -33.2718  -18.0493 O   0  0  0  0  0  0  0  0  0  0  0  0
   31.8504  -28.6895  -15.9487 N   0  0  0  0  0  0  0  0  0  0  0  0
   27.4303  -34.5611  -16.1298 C   0  0  0  0  0  0  0  0  0  0  0  0
   26.2735  -33.8967  -15.6152 C   0  0  0  0  0  0  0  0  0  0  0  0
   25.7063  -34.6180  -14.4714 O   0  0  0  0  0  0  0  0  0  0  0  0
   26.2317  -35.7344  -14.1548 N   0  0  0  0  0  0  0  0  0  0  0  0
   24.6324  -34.1251  -13.7329 C   0  0  1  0  0  0  0  0  0  0  0  0
   24.0408  -34.9293  -12.6615 C   0  0  0  0  0  0  0  0  0  0  0  0
   23.6939  -34.0654  -11.4965 C   0  0  0  0  0  0  0  0  0  0  0  0
   24.9158  -33.5339  -10.8681 C   0  0  0  0  0  0  0  0  0  0  0  0
   26.2319  -33.6120  -11.2594 N   0  0  0  0  0  0  0  0  0  0  0  0
   27.0386  -32.9972  -10.3659 C   0  0  0  0  0  0  0  0  0  0  0  0
   26.2356  -32.5274   -9.4046 N   0  0  0  0  0  0  0  0  0  0  0  0
   24.9608  -32.8412   -9.6916 C   0  0  0  0  0  0  0  0  0  0  0  0
   22.8851  -35.6472  -13.2185 O   0  0  0  0  0  0  0  0  0  0  0  0
   22.3725  -36.7475  -12.5699 O   0  0  0  0  0  0  0  0  0  0  0  0
  2  1  1  0
  3  2  2  0
  4  2  1  0
  5  4  1  0
  6  5  1  0
  6  7  1  0
  7  8  1  0
  8  9  1  6
 10  8  1  0
 11 10  2  0
 12 10  1  0
 13 12  1  0
 14 13  1  0
 14 16  1  0
 15 14  2  0
 17 16  1  0
 17 24  1  0
 17 18  1  1
 19 18  1  0
 19 20  2  0
 21 20  1  0
 22 21  1  0
 23 22  2  0
 23 19  1  0
 24 26  2  0
 24 25  1  0
M  END
$$$$
