RGH.pdb
     RDKit          3D

 26 26  0  0  1  0  0  0  0  0999 V2000
   23.4844  -10.5949  -15.9523 N   0  0  0  0  0  0  0  0  0  0  0  0
   24.2186  -10.9425  -14.7972 C   0  0  0  0  0  0  0  0  0  0  0  0
   23.6849  -10.7337  -13.6359 N   0  0  0  0  0  0  0  0  0  0  0  0
   25.5307  -11.5174  -14.8414 N   0  0  0  0  0  0  0  0  0  0  0  0
   26.1799  -11.8600  -16.0762 C   0  0  0  0  0  0  0  0  0  0  0  0
   25.6299  -13.0598  -16.7541 C   0  0  0  0  0  0  0  0  0  0  0  0
   26.1458  -14.3524  -16.2268 C   0  0  0  0  0  0  0  0  0  0  0  0
   25.5630  -15.5395  -16.9674 C   0  0  2  0  0  0  0  0  0  0  0  0
   24.1759  -15.4390  -17.2506 N   0  0  0  0  0  0  0  0  0  0  0  0
   25.8658  -16.7596  -16.2114 C   0  0  0  0  0  0  0  0  0  0  0  0
   27.0498  -16.9935  -15.8868 O   0  0  0  0  0  0  0  0  0  0  0  0
   24.1159  -11.0485  -12.7587 N   0  0  0  0  0  0  0  0  0  0  0  0
   24.8201  -17.6487  -15.8636 C   0  0  0  0  0  0  0  0  0  0  0  0
   25.0050  -18.8650  -15.1351 C   0  0  0  0  0  0  0  0  0  0  0  0
   23.7212  -19.4932  -14.8071 O   0  0  0  0  0  0  0  0  0  0  0  0
   23.7454  -20.5809  -14.1448 N   0  0  0  0  0  0  0  0  0  0  0  0
   22.4991  -18.9429  -15.1883 C   0  0  1  0  0  0  0  0  0  0  0  0
   21.2610  -19.7083  -15.0265 C   0  0  0  0  0  0  0  0  0  0  0  0
   20.2369  -18.8921  -14.3132 C   0  0  0  0  0  0  0  0  0  0  0  0
   18.9244  -19.5599  -14.3577 C   0  0  0  0  0  0  0  0  0  0  0  0
   18.5459  -20.7563  -14.9202 N   0  0  0  0  0  0  0  0  0  0  0  0
   17.2238  -20.9759  -14.7443 C   0  0  0  0  0  0  0  0  0  0  0  0
   16.7598  -19.9181  -14.0693 N   0  0  0  0  0  0  0  0  0  0  0  0
   17.7671  -19.0611  -13.8306 C   0  0  0  0  0  0  0  0  0  0  0  0
   20.8261  -20.1540  -16.3583 O   0  0  0  0  0  0  0  0  0  0  0  0
   20.1446  -21.3406  -16.5051 O   0  0  0  0  0  0  0  0  0  0  0  0
  2  1  1  0
  3  2  2  0
  4  2  1  0
  5  4  1  0
  6  5  1  0
  6  7  1  0
  7  8  1  0
  8  9  1  1
 10  8  1  0
 11 10  2  0
 12 10  1  0
 13 12  1  0
 14 13  1  0
 14 16  1  0
 15 14  2  0
 17 16  1  0
 17 24  1  0
 17 18  1  6
 19 18  1  0
 19 20  2  0
 21 20  1  0
 22 21  1  0
 23 22  2  0
 23 19  1  0
 24 26  2  0
 24 25  1  0
M  END
$$$$
