RGH.pdb
     RDKit          3D

 26 26  0  0  1  0  0  0  0  0999 V2000
   24.9544  -19.9651  -10.5959 N   0  0  0  0  0  0  0  0  0  0  0  0
   26.0807  -20.5312  -11.2325 C   0  0  0  0  0  0  0  0  0  0  0  0
   26.2740  -21.8078  -11.1328 N   0  0  0  0  0  0  0  0  0  0  0  0
   27.0270  -19.7640  -11.9876 N   0  0  0  0  0  0  0  0  0  0  0  0
   26.6318  -18.6776  -12.8403 C   0  0  0  0  0  0  0  0  0  0  0  0
   26.2215  -19.0805  -14.2082 C   0  0  0  0  0  0  0  0  0  0  0  0
   26.7287  -18.1901  -15.2876 C   0  0  0  0  0  0  0  0  0  0  0  0
   25.7545  -17.0731  -15.6051 C   0  0  2  0  0  0  0  0  0  0  0  0
   24.7830  -16.8298  -14.5994 N   0  0  0  0  0  0  0  0  0  0  0  0
   25.1234  -17.3539  -16.8991 C   0  0  0  0  0  0  0  0  0  0  0  0
   25.8488  -17.5996  -17.8868 O   0  0  0  0  0  0  0  0  0  0  0  0
   27.1105  -22.2761  -11.5008 N   0  0  0  0  0  0  0  0  0  0  0  0
   23.7118  -17.3420  -17.0101 C   0  0  0  0  0  0  0  0  0  0  0  0
   22.9620  -18.2207  -17.8527 C   0  0  0  0  0  0  0  0  0  0  0  0
   22.2744  -19.2541  -17.0719 O   0  0  0  0  0  0  0  0  0  0  0  0
   21.4121  -19.9748  -17.6715 N   0  0  0  0  0  0  0  0  0  0  0  0
   22.5351  -19.4687  -15.7199 C   0  0  1  0  0  0  0  0  0  0  0  0
   21.7518  -20.4472  -14.9623 C   0  0  0  0  0  0  0  0  0  0  0  0
   22.5502  -20.9766  -13.8195 C   0  0  0  0  0  0  0  0  0  0  0  0
   23.6373  -21.8425  -14.3086 C   0  0  0  0  0  0  0  0  0  0  0  0
   23.8369  -22.4218  -15.5398 N   0  0  0  0  0  0  0  0  0  0  0  0
   24.9657  -23.1654  -15.5463 C   0  0  0  0  0  0  0  0  0  0  0  0
   25.4852  -23.0598  -14.3181 N   0  0  0  0  0  0  0  0  0  0  0  0
   24.7003  -22.2704  -13.5652 C   0  0  0  0  0  0  0  0  0  0  0  0
   20.4984  -19.8010  -14.5469 O   0  0  0  0  0  0  0  0  0  0  0  0
   19.4012  -20.5627  -14.2150 O   0  0  0  0  0  0  0  0  0  0  0  0
  2  1  1  0
  3  2  2  0
  4  2  1  0
  5  4  1  0
  6  5  1  0
  6  7  1  0
  7  8  1  0
  8  9  1  1
 10  8  1  0
 11 10  2  0
 12 10  1  0
 13 12  1  0
 14 13  1  0
 14 16  1  0
 15 14  2  0
 17 16  1  0
 17 24  1  0
 17 18  1  1
 19 18  1  0
 19 20  2  0
 21 20  1  0
 22 21  1  0
 23 22  2  0
 23 19  1  0
 24 26  2  0
 24 25  1  0
M  END
$$$$
