RGH.pdb
     RDKit          3D

 26 26  0  0  1  0  0  0  0  0999 V2000
   39.2512  -11.7956  -12.9949 N   0  0  0  0  0  0  0  0  0  0  0  0
   40.3797  -11.4757  -13.7812 C   0  0  0  0  0  0  0  0  0  0  0  0
   40.2368  -10.6431  -14.7628 N   0  0  0  0  0  0  0  0  0  0  0  0
   41.6825  -12.0265  -13.5500 N   0  0  0  0  0  0  0  0  0  0  0  0
   41.9726  -12.8712  -12.4249 C   0  0  0  0  0  0  0  0  0  0  0  0
   42.0891  -12.1590  -11.1283 C   0  0  0  0  0  0  0  0  0  0  0  0
   42.4361  -13.0355   -9.9766 C   0  0  0  0  0  0  0  0  0  0  0  0
   42.4624  -12.2690   -8.6692 C   0  0  2  0  0  0  0  0  0  0  0  0
   41.2144  -11.7155   -8.2811 N   0  0  0  0  0  0  0  0  0  0  0  0
   43.5013  -11.2366   -8.7507 C   0  0  0  0  0  0  0  0  0  0  0  0
   43.1639  -10.0528   -8.9673 O   0  0  0  0  0  0  0  0  0  0  0  0
   41.0217  -10.3238  -15.3427 N   0  0  0  0  0  0  0  0  0  0  0  0
   44.8615  -11.5935   -8.5849 C   0  0  0  0  0  0  0  0  0  0  0  0
   45.9539  -10.6771   -8.6898 C   0  0  0  0  0  0  0  0  0  0  0  0
   46.5986  -10.4616   -7.3904 O   0  0  0  0  0  0  0  0  0  0  0  0
   47.5366   -9.6020   -7.3293 N   0  0  0  0  0  0  0  0  0  0  0  0
   46.2193  -11.1540   -6.2422 C   0  0  1  0  0  0  0  0  0  0  0  0
   46.6876  -10.7151   -4.9257 C   0  0  0  0  0  0  0  0  0  0  0  0
   45.5639  -10.7285   -3.9454 C   0  0  0  0  0  0  0  0  0  0  0  0
   44.5665   -9.7010   -4.2919 C   0  0  0  0  0  0  0  0  0  0  0  0
   44.5551   -8.7668   -5.3010 N   0  0  0  0  0  0  0  0  0  0  0  0
   43.4441   -7.9997   -5.2364 C   0  0  0  0  0  0  0  0  0  0  0  0
   42.7473   -8.4456   -4.1851 N   0  0  0  0  0  0  0  0  0  0  0  0
   43.4072   -9.4648   -3.6091 C   0  0  0  0  0  0  0  0  0  0  0  0
   47.8124  -11.5768   -4.5339 O   0  0  0  0  0  0  0  0  0  0  0  0
   48.2245  -12.5985   -5.3588 O   0  0  0  0  0  0  0  0  0  0  0  0
  2  1  1  0
  3  2  2  0
  4  2  1  0
  5  4  1  0
  6  5  1  0
  6  7  1  0
  7  8  1  0
  8  9  1  6
 10  8  1  0
 11 10  2  0
 12 10  1  0
 13 12  1  0
 14 13  1  0
 14 16  1  0
 15 14  2  0
 17 16  1  0
 17 24  1  0
 17 18  1  1
 19 18  1  0
 19 20  2  0
 21 20  1  0
 22 21  1  0
 23 22  2  0
 23 19  1  0
 24 26  2  0
 24 25  1  0
M  END
$$$$
