KIQ.pdb
     RDKit          3D

 27 26  0  0  1  0  0  0  0  0999 V2000
   25.2590  -20.9112  -13.2083 N   0  0  0  0  0  0  0  0  0  0  0  0
   24.3695  -20.2104  -12.3555 C   0  0  1  0  0  0  0  0  0  0  0  0
   23.0456  -19.8544  -12.8112 C   0  0  0  0  0  0  0  0  0  0  0  0
   22.6097  -19.2687  -14.0422 C   0  0  0  0  0  0  0  0  0  0  0  0
   23.2794  -19.2533  -15.3095 C   0  0  0  0  0  0  0  0  0  0  0  0
   22.7470  -18.6809  -16.5514 C   0  0  0  0  0  0  0  0  0  0  0  0
   22.2305  -17.3950  -16.6483 N   0  0  0  0  0  0  0  0  0  0  0  0
   24.2488  -20.9203  -11.0223 C   0  0  0  0  0  0  0  0  0  0  0  0
   23.9735  -22.1456  -11.0799 O   0  0  0  0  0  0  0  0  0  0  0  0
   27.4364  -19.2968   -7.0469 C   0  0  0  0  0  0  0  0  0  0  0  0
   26.6427  -20.2732   -7.9211 C   0  0  0  0  0  0  0  0  0  0  0  0
   25.2280  -20.3695   -7.4922 C   0  0  2  0  0  0  0  0  0  0  0  0
   25.0707  -20.9929   -6.1172 C   0  0  0  0  0  0  0  0  0  0  0  0
   24.3669  -21.0152   -8.5171 C   0  0  2  0  0  0  0  0  0  0  0  0
   24.4311  -20.2800   -9.7876 N   0  0  0  0  0  0  0  0  0  0  0  0
   22.9714  -21.0775   -8.0823 C   0  0  0  0  0  0  0  0  0  0  0  0
   22.2558  -20.0566   -8.1803 O   0  0  0  0  0  0  0  0  0  0  0  0
   19.4121  -25.9508   -8.6025 N   0  0  0  0  0  0  0  0  0  0  0  0
   18.5921  -25.1628   -7.7411 C   0  0  0  0  0  0  0  0  0  0  0  0
   17.4643  -25.6127   -7.4611 O   0  0  0  0  0  0  0  0  0  0  0  0
   19.0521  -23.8862   -7.2132 C   0  0  0  0  0  0  0  0  0  0  0  0
   20.4414  -23.5798   -7.6525 C   0  0  0  0  0  0  0  0  0  0  0  0
   21.0134  -22.2842   -7.1735 C   0  0  2  0  0  0  0  0  0  0  0  0
   22.4316  -22.2620   -7.5606 N   0  0  0  0  0  0  0  0  0  0  0  0
   20.9570  -22.0741   -5.7115 C   0  0  0  0  0  0  0  0  0  0  0  0
   19.7768  -21.6858   -5.1173 O   0  0  0  0  0  0  0  0  0  0  0  0
   21.9426  -22.2328   -4.9731 O   0  0  0  0  0  0  0  0  0  0  0  0
  2  1  1  6
  3  2  1  0
  4  3  1  0
  5  4  1  0
  6  5  1  0
  7  6  1  0
  8  9  2  0
  8  2  1  0
 10 11  1  0
 12 11  1  0
 12 14  1  0
 12 13  1  1
 14 15  1  6
 15  8  1  0
 16 24  1  0
 16 14  1  0
 17 16  2  0
 18 19  1  0
 19 21  1  0
 20 19  2  0
 21 22  1  0
 23 22  1  1
 23 24  1  0
 23 25  1  0
 25 26  1  0
 27 25  2  0
M  END
$$$$
