KIQ.pdb
     RDKit          3D

 27 26  0  0  1  0  0  0  0  0999 V2000
   28.5353  -19.0417  -15.6232 N   0  0  0  0  0  0  0  0  0  0  0  0
   27.7039  -18.7193  -14.5211 C   0  0  1  0  0  0  0  0  0  0  0  0
   26.9391  -17.4937  -14.5144 C   0  0  0  0  0  0  0  0  0  0  0  0
   26.8227  -16.4623  -15.4998 C   0  0  0  0  0  0  0  0  0  0  0  0
   26.1201  -15.2162  -15.4087 C   0  0  0  0  0  0  0  0  0  0  0  0
   25.9624  -14.2418  -16.4945 C   0  0  0  0  0  0  0  0  0  0  0  0
   25.2606  -13.0500  -16.3651 N   0  0  0  0  0  0  0  0  0  0  0  0
   26.7732  -19.8733  -14.2080 C   0  0  0  0  0  0  0  0  0  0  0  0
   27.1997  -21.0159  -14.5131 O   0  0  0  0  0  0  0  0  0  0  0  0
   26.2740  -20.8947   -9.3707 C   0  0  0  0  0  0  0  0  0  0  0  0
   25.5855  -20.3268  -10.6162 C   0  0  0  0  0  0  0  0  0  0  0  0
   25.6423  -21.2728  -11.7549 C   0  0  2  0  0  0  0  0  0  0  0  0
   27.0620  -21.6486  -12.1380 C   0  0  0  0  0  0  0  0  0  0  0  0
   24.8371  -20.8121  -12.9161 C   0  0  2  0  0  0  0  0  0  0  0  0
   25.5137  -19.7095  -13.6128 N   0  0  0  0  0  0  0  0  0  0  0  0
   23.5093  -20.3591  -12.5015 C   0  0  0  0  0  0  0  0  0  0  0  0
   23.4061  -19.3164  -11.8189 O   0  0  0  0  0  0  0  0  0  0  0  0
   20.5600  -18.9593  -16.8629 N   0  0  0  0  0  0  0  0  0  0  0  0
   19.5245  -18.6750  -15.9237 C   0  0  0  0  0  0  0  0  0  0  0  0
   18.5408  -18.0326  -16.3387 O   0  0  0  0  0  0  0  0  0  0  0  0
   19.6139  -19.1146  -14.5385 C   0  0  0  0  0  0  0  0  0  0  0  0
   20.8995  -19.8151  -14.2674 C   0  0  0  0  0  0  0  0  0  0  0  0
   21.0673  -20.3757  -12.8916 C   0  0  2  0  0  0  0  0  0  0  0  0
   22.3589  -21.0772  -12.8592 N   0  0  0  0  0  0  0  0  0  0  0  0
   20.0329  -21.3469  -12.4777 C   0  0  0  0  0  0  0  0  0  0  0  0
   20.2841  -22.6983  -12.5642 O   0  0  0  0  0  0  0  0  0  0  0  0
   18.9217  -20.9994  -12.0461 O   0  0  0  0  0  0  0  0  0  0  0  0
  2  1  1  6
  3  2  1  0
  4  3  1  0
  5  4  1  0
  6  5  1  0
  7  6  1  0
  8  9  2  0
  8  2  1  0
 10 11  1  0
 12 11  1  0
 12 14  1  0
 12 13  1  6
 14 15  1  1
 15  8  1  0
 16 24  1  0
 16 14  1  0
 17 16  2  0
 18 19  1  0
 19 21  1  0
 20 19  2  0
 21 22  1  0
 23 22  1  6
 23 24  1  0
 23 25  1  0
 25 26  1  0
 27 25  2  0
M  END
$$$$
