KIQ.pdb
     RDKit          3D

 27 26  0  0  1  0  0  0  0  0999 V2000
   28.1080  -22.1416  -15.5649 N   0  0  0  0  0  0  0  0  0  0  0  0
   27.3910  -20.9651  -15.2312 C   0  0  1  0  0  0  0  0  0  0  0  0
   26.9723  -20.0449  -16.2632 C   0  0  0  0  0  0  0  0  0  0  0  0
   27.5873  -19.6981  -17.5082 C   0  0  0  0  0  0  0  0  0  0  0  0
   28.9478  -19.3212  -17.7570 C   0  0  0  0  0  0  0  0  0  0  0  0
   29.4940  -18.8935  -19.0502 C   0  0  0  0  0  0  0  0  0  0  0  0
   29.6238  -17.5638  -19.4306 N   0  0  0  0  0  0  0  0  0  0  0  0
   26.1919  -21.3055  -14.3696 C   0  0  0  0  0  0  0  0  0  0  0  0
   25.4243  -22.1892  -14.8282 O   0  0  0  0  0  0  0  0  0  0  0  0
   26.5481  -20.4962   -8.9476 C   0  0  0  0  0  0  0  0  0  0  0  0
   26.2462  -21.1582  -10.2960 C   0  0  0  0  0  0  0  0  0  0  0  0
   24.9913  -20.6439  -10.8921 C   0  0  2  0  0  0  0  0  0  0  0  0
   23.7766  -20.8991  -10.0185 C   0  0  0  0  0  0  0  0  0  0  0  0
   24.7981  -21.1033  -12.2923 C   0  0  2  0  0  0  0  0  0  0  0  0
   25.9309  -20.6948  -13.1341 N   0  0  0  0  0  0  0  0  0  0  0  0
   23.5673  -20.5620  -12.8688 C   0  0  0  0  0  0  0  0  0  0  0  0
   23.4826  -19.3326  -13.0816 O   0  0  0  0  0  0  0  0  0  0  0  0
   19.6226  -23.7616  -16.3367 N   0  0  0  0  0  0  0  0  0  0  0  0
   18.8783  -22.5595  -16.1467 C   0  0  0  0  0  0  0  0  0  0  0  0
   17.7822  -22.4705  -16.7326 O   0  0  0  0  0  0  0  0  0  0  0  0
   19.3788  -21.4813  -15.3059 C   0  0  0  0  0  0  0  0  0  0  0  0
   20.7039  -21.8164  -14.7154 C   0  0  0  0  0  0  0  0  0  0  0  0
   21.2778  -20.8101  -13.7703 C   0  0  2  0  0  0  0  0  0  0  0  0
   22.4890  -21.4017  -13.1832 N   0  0  0  0  0  0  0  0  0  0  0  0
   20.3942  -20.4237  -12.6503 C   0  0  0  0  0  0  0  0  0  0  0  0
   19.4982  -19.3894  -12.8061 O   0  0  0  0  0  0  0  0  0  0  0  0
   20.4186  -20.9967  -11.5489 O   0  0  0  0  0  0  0  0  0  0  0  0
  2  1  1  6
  3  2  1  0
  4  3  1  0
  5  4  1  0
  6  5  1  0
  7  6  1  0
  8  9  2  0
  8  2  1  0
 10 11  1  0
 12 11  1  0
 12 14  1  0
 12 13  1  1
 14 15  1  6
 15  8  1  0
 16 24  1  0
 16 14  1  0
 17 16  2  0
 18 19  1  0
 19 21  1  0
 20 19  2  0
 21 22  1  0
 23 22  1  6
 23 24  1  0
 23 25  1  0
 25 26  1  0
 27 25  2  0
M  END
$$$$
