KIQ.pdb
     RDKit          3D

 27 26  0  0  1  0  0  0  0  0999 V2000
   21.0784  -14.4100  -18.0215 N   0  0  0  0  0  0  0  0  0  0  0  0
   19.9340  -13.6949  -17.5871 C   0  0  1  0  0  0  0  0  0  0  0  0
   19.3992  -13.9040  -16.2614 C   0  0  0  0  0  0  0  0  0  0  0  0
   18.9397  -15.0977  -15.6194 C   0  0  0  0  0  0  0  0  0  0  0  0
   17.9975  -16.0644  -16.1017 C   0  0  0  0  0  0  0  0  0  0  0  0
   17.5055  -17.2267  -15.3531 C   0  0  0  0  0  0  0  0  0  0  0  0
   16.6564  -18.1863  -15.8896 N   0  0  0  0  0  0  0  0  0  0  0  0
   20.1289  -12.2078  -17.8023 C   0  0  0  0  0  0  0  0  0  0  0  0
   21.2938  -11.7768  -17.6077 O   0  0  0  0  0  0  0  0  0  0  0  0
   17.6393  -11.0261  -21.3503 C   0  0  0  0  0  0  0  0  0  0  0  0
   18.7669  -10.0967  -20.8895 C   0  0  0  0  0  0  0  0  0  0  0  0
   18.4552   -9.4567  -19.5903 C   0  0  2  0  0  0  0  0  0  0  0  0
   18.3869   -7.9431  -19.6808 C   0  0  0  0  0  0  0  0  0  0  0  0
   19.3465   -9.9268  -18.4978 C   0  0  2  0  0  0  0  0  0  0  0  0
   19.0973  -11.3432  -18.1971 N   0  0  0  0  0  0  0  0  0  0  0  0
   19.1521   -9.1475  -17.2751 C   0  0  0  0  0  0  0  0  0  0  0  0
   18.1945   -9.4254  -16.5203 O   0  0  0  0  0  0  0  0  0  0  0  0
   23.5703   -5.5349  -14.7543 N   0  0  0  0  0  0  0  0  0  0  0  0
   22.4366   -5.1827  -13.9632 C   0  0  0  0  0  0  0  0  0  0  0  0
   22.5966   -4.2952  -13.1032 O   0  0  0  0  0  0  0  0  0  0  0  0
   21.1478   -5.8337  -14.1507 C   0  0  0  0  0  0  0  0  0  0  0  0
   21.1351   -6.6824  -15.3740 C   0  0  0  0  0  0  0  0  0  0  0  0
   19.8744   -7.4424  -15.6359 C   0  0  2  0  0  0  0  0  0  0  0  0
   20.0227   -8.0993  -16.9427 N   0  0  0  0  0  0  0  0  0  0  0  0
   18.6466   -6.6218  -15.6970 C   0  0  0  0  0  0  0  0  0  0  0  0
   17.8582   -6.4789  -14.5768 O   0  0  0  0  0  0  0  0  0  0  0  0
   18.2797   -6.0408  -16.7312 O   0  0  0  0  0  0  0  0  0  0  0  0
  2  1  1  1
  3  2  1  0
  4  3  1  0
  5  4  1  0
  6  5  1  0
  7  6  1  0
  8  9  2  0
  8  2  1  0
 10 11  1  0
 12 11  1  0
 12 14  1  0
 12 13  1  6
 14 15  1  1
 15  8  1  0
 16 24  1  0
 16 14  1  0
 17 16  2  0
 18 19  1  0
 19 21  1  0
 20 19  2  0
 21 22  1  0
 23 22  1  6
 23 24  1  0
 23 25  1  0
 25 26  1  0
 27 25  2  0
M  END
$$$$
