KIQ.pdb
     RDKit          3D

 27 26  0  0  1  0  0  0  0  0999 V2000
   28.0533  -22.1417  -15.7553 N   0  0  0  0  0  0  0  0  0  0  0  0
   27.3902  -20.9508  -15.3661 C   0  0  1  0  0  0  0  0  0  0  0  0
   26.9209  -20.0148  -16.3615 C   0  0  0  0  0  0  0  0  0  0  0  0
   27.5918  -19.4343  -17.4846 C   0  0  0  0  0  0  0  0  0  0  0  0
   28.9368  -18.9452  -17.5656 C   0  0  0  0  0  0  0  0  0  0  0  0
   29.5026  -18.1790  -18.6820 C   0  0  0  0  0  0  0  0  0  0  0  0
   28.8854  -17.0704  -19.2474 N   0  0  0  0  0  0  0  0  0  0  0  0
   26.2479  -21.2681  -14.4224 C   0  0  0  0  0  0  0  0  0  0  0  0
   25.4583  -22.1683  -14.8055 O   0  0  0  0  0  0  0  0  0  0  0  0
   26.9619  -20.5818   -9.0727 C   0  0  0  0  0  0  0  0  0  0  0  0
   26.5296  -21.1739  -10.4181 C   0  0  0  0  0  0  0  0  0  0  0  0
   25.2596  -20.5802  -10.8970 C   0  0  2  0  0  0  0  0  0  0  0  0
   24.1003  -20.8256   -9.9486 C   0  0  0  0  0  0  0  0  0  0  0  0
   24.9463  -20.9646  -12.2981 C   0  0  2  0  0  0  0  0  0  0  0  0
   26.0598  -20.6200  -13.1928 N   0  0  0  0  0  0  0  0  0  0  0  0
   23.7361  -20.2978  -12.7788 C   0  0  0  0  0  0  0  0  0  0  0  0
   23.8080  -19.1132  -13.1732 O   0  0  0  0  0  0  0  0  0  0  0  0
   21.6568  -21.3457  -17.4356 N   0  0  0  0  0  0  0  0  0  0  0  0
   20.6854  -20.3493  -17.1214 C   0  0  0  0  0  0  0  0  0  0  0  0
   19.8374  -20.0859  -17.9955 O   0  0  0  0  0  0  0  0  0  0  0  0
   20.6859  -19.6672  -15.8350 C   0  0  0  0  0  0  0  0  0  0  0  0
   21.7419  -20.2016  -14.9315 C   0  0  0  0  0  0  0  0  0  0  0  0
   21.3681  -20.3401  -13.4905 C   0  0  2  0  0  0  0  0  0  0  0  0
   22.5048  -20.9687  -12.8018 N   0  0  0  0  0  0  0  0  0  0  0  0
   20.1802  -21.1791  -13.2267 C   0  0  0  0  0  0  0  0  0  0  0  0
   18.9181  -20.6392  -13.3383 O   0  0  0  0  0  0  0  0  0  0  0  0
   20.2629  -22.3745  -12.9013 O   0  0  0  0  0  0  0  0  0  0  0  0
  2  1  1  6
  3  2  1  0
  4  3  1  0
  5  4  1  0
  6  5  1  0
  7  6  1  0
  8  9  2  0
  8  2  1  0
 10 11  1  0
 12 11  1  0
 12 14  1  0
 12 13  1  1
 14 15  1  6
 15  8  1  0
 16 24  1  0
 16 14  1  0
 17 16  2  0
 18 19  1  0
 19 21  1  0
 20 19  2  0
 21 22  1  0
 23 22  1  6
 23 24  1  0
 23 25  1  0
 25 26  1  0
 27 25  2  0
M  END
$$$$
