KIQ.pdb
     RDKit          3D

 27 26  0  0  1  0  0  0  0  0999 V2000
   20.7128  -21.0516  -12.0440 N   0  0  0  0  0  0  0  0  0  0  0  0
   21.5831  -21.5948  -13.0224 C   0  0  1  0  0  0  0  0  0  0  0  0
   21.1066  -21.8610  -14.3600 C   0  0  0  0  0  0  0  0  0  0  0  0
   20.0949  -22.7589  -14.8274 C   0  0  0  0  0  0  0  0  0  0  0  0
   19.9739  -24.1677  -14.5918 C   0  0  0  0  0  0  0  0  0  0  0  0
   18.9285  -25.0399  -15.1395 C   0  0  0  0  0  0  0  0  0  0  0  0
   17.6933  -24.5808  -15.5790 N   0  0  0  0  0  0  0  0  0  0  0  0
   22.8516  -20.7711  -13.1146 C   0  0  0  0  0  0  0  0  0  0  0  0
   22.6955  -19.5241  -13.0826 O   0  0  0  0  0  0  0  0  0  0  0  0
   27.1242  -21.8018  -10.1964 C   0  0  0  0  0  0  0  0  0  0  0  0
   26.0263  -21.1548  -11.0471 C   0  0  0  0  0  0  0  0  0  0  0  0
   26.4249  -21.0477  -12.4698 C   0  0  2  0  0  0  0  0  0  0  0  0
   27.7420  -20.3173  -12.6590 C   0  0  0  0  0  0  0  0  0  0  0  0
   25.3381  -20.5020  -13.3242 C   0  0  2  0  0  0  0  0  0  0  0  0
   24.1314  -21.3345  -13.2247 N   0  0  0  0  0  0  0  0  0  0  0  0
   25.7440  -20.4320  -14.7279 C   0  0  0  0  0  0  0  0  0  0  0  0
   25.8347  -21.4890  -15.3902 O   0  0  0  0  0  0  0  0  0  0  0  0
   24.2813  -15.9034  -18.5011 N   0  0  0  0  0  0  0  0  0  0  0  0
   23.7599  -17.2121  -18.7260 C   0  0  0  0  0  0  0  0  0  0  0  0
   22.7364  -17.3032  -19.4309 O   0  0  0  0  0  0  0  0  0  0  0  0
   24.3948  -18.3912  -18.1544 C   0  0  0  0  0  0  0  0  0  0  0  0
   25.6142  -18.0351  -17.3778 C   0  0  0  0  0  0  0  0  0  0  0  0
   26.3627  -19.1759  -16.7665 C   0  0  2  0  0  0  0  0  0  0  0  0
   26.0304  -19.2004  -15.3345 N   0  0  0  0  0  0  0  0  0  0  0  0
   27.8345  -19.0907  -16.8713 C   0  0  0  0  0  0  0  0  0  0  0  0
   28.5810  -18.7079  -15.7791 O   0  0  0  0  0  0  0  0  0  0  0  0
   28.4480  -19.3520  -17.9188 O   0  0  0  0  0  0  0  0  0  0  0  0
  2  1  1  1
  3  2  1  0
  4  3  1  0
  5  4  1  0
  6  5  1  0
  7  6  1  0
  8  9  2  0
  8  2  1  0
 10 11  1  0
 12 11  1  0
 12 14  1  0
 12 13  1  1
 14 15  1  6
 15  8  1  0
 16 24  1  0
 16 14  1  0
 17 16  2  0
 18 19  1  0
 19 21  1  0
 20 19  2  0
 21 22  1  0
 23 22  1  1
 23 24  1  0
 23 25  1  0
 25 26  1  0
 27 25  2  0
M  END
$$$$
