KIQ.pdb
     RDKit          3D

 27 26  0  0  1  0  0  0  0  0999 V2000
   27.6391  -25.1133  -16.2799 N   0  0  0  0  0  0  0  0  0  0  0  0
   26.9925  -24.1226  -17.0610 C   0  0  1  0  0  0  0  0  0  0  0  0
   26.0668  -24.5007  -18.1037 C   0  0  0  0  0  0  0  0  0  0  0  0
   26.2348  -25.3679  -19.2298 C   0  0  0  0  0  0  0  0  0  0  0  0
   26.9621  -25.1268  -20.4412 C   0  0  0  0  0  0  0  0  0  0  0  0
   27.0193  -26.0275  -21.5984 C   0  0  0  0  0  0  0  0  0  0  0  0
   26.0573  -26.9911  -21.8736 N   0  0  0  0  0  0  0  0  0  0  0  0
   26.3231  -23.0998  -16.1657 C   0  0  0  0  0  0  0  0  0  0  0  0
   25.8708  -23.5399  -15.0784 O   0  0  0  0  0  0  0  0  0  0  0  0
   28.4621  -18.2405  -16.1904 C   0  0  0  0  0  0  0  0  0  0  0  0
   27.7960  -19.5203  -15.6749 C   0  0  0  0  0  0  0  0  0  0  0  0
   26.3184  -19.4353  -15.7399 C   0  0  2  0  0  0  0  0  0  0  0  0
   25.7494  -18.3648  -14.8267 C   0  0  0  0  0  0  0  0  0  0  0  0
   25.6650  -20.7569  -15.5519 C   0  0  2  0  0  0  0  0  0  0  0  0
   26.2042  -21.7425  -16.4989 N   0  0  0  0  0  0  0  0  0  0  0  0
   24.2169  -20.6703  -15.7403 C   0  0  0  0  0  0  0  0  0  0  0  0
   23.7636  -20.4210  -16.8788 O   0  0  0  0  0  0  0  0  0  0  0  0
   19.9948  -23.1210  -11.9234 N   0  0  0  0  0  0  0  0  0  0  0  0
   19.1710  -22.2614  -12.7093 C   0  0  0  0  0  0  0  0  0  0  0  0
   17.9535  -22.2419  -12.4444 O   0  0  0  0  0  0  0  0  0  0  0  0
   19.7282  -21.4432  -13.7772 C   0  0  0  0  0  0  0  0  0  0  0  0
   21.2074  -21.5890  -13.8646 C   0  0  0  0  0  0  0  0  0  0  0  0
   21.8909  -20.7612  -14.9052 C   0  0  2  0  0  0  0  0  0  0  0  0
   23.3377  -20.8627  -14.6647 N   0  0  0  0  0  0  0  0  0  0  0  0
   21.5462  -19.3239  -14.8916 C   0  0  0  0  0  0  0  0  0  0  0  0
   20.5846  -18.8389  -15.7499 O   0  0  0  0  0  0  0  0  0  0  0  0
   22.0924  -18.5110  -14.1283 O   0  0  0  0  0  0  0  0  0  0  0  0
  2  1  1  1
  3  2  1  0
  4  3  1  0
  5  4  1  0
  6  5  1  0
  7  6  1  0
  8  9  2  0
  8  2  1  0
 10 11  1  0
 12 11  1  0
 12 14  1  0
 12 13  1  1
 14 15  1  6
 15  8  1  0
 16 24  1  0
 16 14  1  0
 17 16  2  0
 18 19  1  0
 19 21  1  0
 20 19  2  0
 21 22  1  0
 23 22  1  1
 23 24  1  0
 23 25  1  0
 25 26  1  0
 27 25  2  0
M  END
$$$$
