KIQ.pdb
     RDKit          3D

 27 26  0  0  1  0  0  0  0  0999 V2000
   21.2027  -16.9716  -15.0518 N   0  0  0  0  0  0  0  0  0  0  0  0
   21.7122  -16.1280  -16.0708 C   0  0  1  0  0  0  0  0  0  0  0  0
   20.8615  -15.6912  -17.1537 C   0  0  0  0  0  0  0  0  0  0  0  0
   19.6561  -16.2570  -17.6783 C   0  0  0  0  0  0  0  0  0  0  0  0
   19.2328  -17.6265  -17.6633 C   0  0  0  0  0  0  0  0  0  0  0  0
   17.9517  -18.1314  -18.1705 C   0  0  0  0  0  0  0  0  0  0  0  0
   17.5979  -18.1255  -19.5138 N   0  0  0  0  0  0  0  0  0  0  0  0
   22.3844  -14.9140  -15.4624 C   0  0  0  0  0  0  0  0  0  0  0  0
   21.7814  -14.3845  -14.4947 O   0  0  0  0  0  0  0  0  0  0  0  0
   27.8001  -14.3976  -15.6739 C   0  0  0  0  0  0  0  0  0  0  0  0
   26.3433  -14.3719  -15.2001 C   0  0  0  0  0  0  0  0  0  0  0  0
   25.6539  -13.1265  -15.6104 C   0  0  2  0  0  0  0  0  0  0  0  0
   26.3077  -11.8782  -15.0464 C   0  0  0  0  0  0  0  0  0  0  0  0
   24.1912  -13.1756  -15.3510 C   0  0  2  0  0  0  0  0  0  0  0  0
   23.6025  -14.3937  -15.9241 N   0  0  0  0  0  0  0  0  0  0  0  0
   23.5072  -12.0135  -15.9184 C   0  0  0  0  0  0  0  0  0  0  0  0
   23.2323  -12.0029  -17.1383 O   0  0  0  0  0  0  0  0  0  0  0  0
   18.5817  -11.6647  -16.5996 N   0  0  0  0  0  0  0  0  0  0  0  0
   18.6664  -10.2433  -16.6860 C   0  0  0  0  0  0  0  0  0  0  0  0
   17.6311   -9.6304  -17.0105 O   0  0  0  0  0  0  0  0  0  0  0  0
   19.9100   -9.5383  -16.4093 C   0  0  0  0  0  0  0  0  0  0  0  0
   21.0064  -10.4802  -16.0520 C   0  0  0  0  0  0  0  0  0  0  0  0
   22.3160   -9.8588  -15.6859 C   0  0  2  0  0  0  0  0  0  0  0  0
   23.1589  -10.9188  -15.1138 N   0  0  0  0  0  0  0  0  0  0  0  0
   22.2394   -8.7743  -14.6845 C   0  0  0  0  0  0  0  0  0  0  0  0
   21.8060   -7.5218  -15.0586 O   0  0  0  0  0  0  0  0  0  0  0  0
   22.5538   -8.9377  -13.4944 O   0  0  0  0  0  0  0  0  0  0  0  0
  2  1  1  1
  3  2  1  0
  4  3  1  0
  5  4  1  0
  6  5  1  0
  7  6  1  0
  8  9  2  0
  8  2  1  0
 10 11  1  0
 12 11  1  0
 12 14  1  0
 12 13  1  1
 14 15  1  6
 15  8  1  0
 16 24  1  0
 16 14  1  0
 17 16  2  0
 18 19  1  0
 19 21  1  0
 20 19  2  0
 21 22  1  0
 23 22  1  1
 23 24  1  0
 23 25  1  0
 25 26  1  0
 27 25  2  0
M  END
$$$$
