MEH.pdb
     RDKit          3D

 28 28  0  0  1  0  0  0  0  0999 V2000
    6.5522  -12.0232   26.4584 C   0  0  0  0  0  0  0  0  0  0  0  0
    7.7412  -12.7604   25.3325 S   0  0  0  0  0  0  0  0  0  0  0  0
    7.0547  -13.0967   23.7106 C   0  0  0  0  0  0  0  0  0  0  0  0
    8.0863  -13.6099   22.7533 C   0  0  0  0  0  0  0  0  0  0  0  0
    7.7152  -14.9159   22.0859 C   0  0  2  0  0  0  0  0  0  0  0  0
    6.3040  -15.1546   22.2588 N   0  0  0  0  0  0  0  0  0  0  0  0
    8.5072  -15.9738   22.7984 C   0  0  0  0  0  0  0  0  0  0  0  0
    8.0076  -16.6391   23.7466 O   0  0  0  0  0  0  0  0  0  0  0  0
    9.8278  -16.3031   22.4800 N   0  0  0  0  0  0  0  0  0  0  0  0
   10.6207  -17.3770   22.9815 C   0  0  1  0  0  0  0  0  0  0  0  0
   11.7438  -17.8304   22.1248 C   0  0  0  0  0  0  0  0  0  0  0  0
   12.7734  -16.7578   21.8247 C   0  0  0  0  0  0  0  0  0  0  0  0
   13.8302  -17.2539   20.9147 C   0  0  0  0  0  0  0  0  0  0  0  0
   15.0175  -16.9120   21.0672 O   0  0  0  0  0  0  0  0  0  0  0  0
   11.0889  -17.0325   24.3358 C   0  0  0  0  0  0  0  0  0  0  0  0
   11.2998  -15.8310   24.6603 O   0  0  0  0  0  0  0  0  0  0  0  0
   13.5094  -18.1123   19.8763 O   0  0  0  0  0  0  0  0  0  0  0  0
   11.3392  -17.9974   25.3743 N   0  0  0  0  0  0  0  0  0  0  0  0
   11.2185  -17.5780   26.7532 C   0  0  1  0  0  0  0  0  0  0  0  0
    9.8408  -17.1064   27.0232 C   0  0  0  0  0  0  0  0  0  0  0  0
    9.7298  -15.7456   27.5790 C   0  0  0  0  0  0  0  0  0  0  0  0
   10.8258  -14.9315   27.8920 C   0  0  0  0  0  0  0  0  0  0  0  0
   10.3810  -13.7738   28.3889 N   0  0  0  0  0  0  0  0  0  0  0  0
    9.0339  -13.8248   28.4009 C   0  0  0  0  0  0  0  0  0  0  0  0
    8.6651  -15.0077   27.9142 N   0  0  0  0  0  0  0  0  0  0  0  0
   11.5619  -18.7396   27.6646 C   0  0  0  0  0  0  0  0  0  0  0  0
   11.3448  -19.9134   27.2837 O   0  0  0  0  0  0  0  0  0  0  0  0
   12.1124  -18.5419   28.9125 O   0  0  0  0  0  0  0  0  0  0  0  0
  1  2  1  0
  3  2  1  0
  4  3  1  0
  5  4  1  0
  5  6  1  1
  7  5  1  0
  8  7  2  0
  9  7  1  0
 10  9  1  0
 11 12  1  0
 10 11  1  6
 12 13  1  0
 13 17  1  0
 13 14  2  0
 15 10  1  0
 15 18  1  0
 16 15  2  0
 19 18  1  0
 19 20  1  1
 20 21  1  0
 21 22  2  0
 21 25  1  0
 22 23  1  0
 23 24  1  0
 25 24  2  0
 26 19  1  0
 27 26  2  0
 28 26  1  0
M  END
$$$$
