MEH.pdb
     RDKit          3D

 28 28  0  0  1  0  0  0  0  0999 V2000
    9.1156  -12.0593   21.3427 C   0  0  0  0  0  0  0  0  0  0  0  0
    7.5328  -12.2178   20.5093 S   0  0  0  0  0  0  0  0  0  0  0  0
    7.0295  -13.9235   20.2807 C   0  0  0  0  0  0  0  0  0  0  0  0
    8.1968  -14.8330   20.0475 C   0  0  0  0  0  0  0  0  0  0  0  0
    7.8221  -16.2890   19.8784 C   0  0  2  0  0  0  0  0  0  0  0  0
    6.3862  -16.4088   19.8332 N   0  0  0  0  0  0  0  0  0  0  0  0
    8.3590  -16.9887   21.0933 C   0  0  0  0  0  0  0  0  0  0  0  0
    7.5883  -17.5411   21.9254 O   0  0  0  0  0  0  0  0  0  0  0  0
    9.7200  -17.0860   21.3968 N   0  0  0  0  0  0  0  0  0  0  0  0
   10.3471  -17.8393   22.4326 C   0  0  1  0  0  0  0  0  0  0  0  0
   11.5636  -18.6008   22.0574 C   0  0  0  0  0  0  0  0  0  0  0  0
   11.5286  -19.1847   20.6579 C   0  0  0  0  0  0  0  0  0  0  0  0
   12.8083  -19.8406   20.3071 C   0  0  0  0  0  0  0  0  0  0  0  0
   13.6246  -19.2851   19.5490 O   0  0  0  0  0  0  0  0  0  0  0  0
   10.6075  -16.9499   23.5786 C   0  0  0  0  0  0  0  0  0  0  0  0
   10.6255  -15.6962   23.4324 O   0  0  0  0  0  0  0  0  0  0  0  0
   13.1165  -21.0883   20.8232 O   0  0  0  0  0  0  0  0  0  0  0  0
   10.8558  -17.4108   24.9195 N   0  0  0  0  0  0  0  0  0  0  0  0
   10.0155  -16.9174   25.9883 C   0  0  1  0  0  0  0  0  0  0  0  0
    8.5878  -17.0750   25.6276 C   0  0  0  0  0  0  0  0  0  0  0  0
    7.8632  -15.8260   25.3310 C   0  0  0  0  0  0  0  0  0  0  0  0
    8.4700  -14.5670   25.2390 C   0  0  0  0  0  0  0  0  0  0  0  0
    7.5343  -13.6502   24.9761 N   0  0  0  0  0  0  0  0  0  0  0  0
    6.3489  -14.2873   24.8965 C   0  0  0  0  0  0  0  0  0  0  0  0
    6.5659  -15.5831   25.1107 N   0  0  0  0  0  0  0  0  0  0  0  0
   10.3207  -17.6810   27.2618 C   0  0  0  0  0  0  0  0  0  0  0  0
   10.6666  -18.8835   27.1975 O   0  0  0  0  0  0  0  0  0  0  0  0
   10.2291  -17.0860   28.5017 O   0  0  0  0  0  0  0  0  0  0  0  0
  1  2  1  0
  3  2  1  0
  4  3  1  0
  5  4  1  0
  5  6  1  1
  7  5  1  0
  8  7  2  0
  9  7  1  0
 10  9  1  0
 11 12  1  0
 10 11  1  6
 12 13  1  0
 13 17  1  0
 13 14  2  0
 15 10  1  0
 15 18  1  0
 16 15  2  0
 19 18  1  0
 19 20  1  6
 20 21  1  0
 21 22  2  0
 21 25  1  0
 22 23  1  0
 23 24  1  0
 25 24  2  0
 26 19  1  0
 27 26  2  0
 28 26  1  0
M  END
$$$$
