MEH.pdb
     RDKit          3D

 28 28  0  0  1  0  0  0  0  0999 V2000
    7.5906  -12.0831   20.9649 C   0  0  0  0  0  0  0  0  0  0  0  0
    8.6767  -12.4099   19.5726 S   0  0  0  0  0  0  0  0  0  0  0  0
    8.5662  -14.0984   18.9796 C   0  0  0  0  0  0  0  0  0  0  0  0
    9.6418  -14.4231   17.9886 C   0  0  0  0  0  0  0  0  0  0  0  0
    9.6653  -15.8721   17.5543 C   0  0  2  0  0  0  0  0  0  0  0  0
    8.3392  -16.2704   17.1529 N   0  0  0  0  0  0  0  0  0  0  0  0
   10.0922  -16.6505   18.7650 C   0  0  0  0  0  0  0  0  0  0  0  0
    9.2459  -17.1954   19.5255 O   0  0  0  0  0  0  0  0  0  0  0  0
   11.4258  -16.8336   19.1414 N   0  0  0  0  0  0  0  0  0  0  0  0
   11.9467  -17.6207   20.2104 C   0  0  1  0  0  0  0  0  0  0  0  0
   13.3868  -17.9693   20.1387 C   0  0  0  0  0  0  0  0  0  0  0  0
   13.8356  -18.9870   21.1700 C   0  0  0  0  0  0  0  0  0  0  0  0
   15.2807  -19.2849   21.0512 C   0  0  0  0  0  0  0  0  0  0  0  0
   15.9674  -18.7707   20.1492 O   0  0  0  0  0  0  0  0  0  0  0  0
   11.6203  -16.9644   21.4890 C   0  0  0  0  0  0  0  0  0  0  0  0
   11.9008  -15.7488   21.6814 O   0  0  0  0  0  0  0  0  0  0  0  0
   15.8914  -20.1437   21.9498 O   0  0  0  0  0  0  0  0  0  0  0  0
   10.9759  -17.6236   22.5946 N   0  0  0  0  0  0  0  0  0  0  0  0
   10.7684  -16.8811   23.8183 C   0  0  1  0  0  0  0  0  0  0  0  0
    9.3261  -16.8432   24.1525 C   0  0  0  0  0  0  0  0  0  0  0  0
    8.4466  -16.2687   23.1183 C   0  0  0  0  0  0  0  0  0  0  0  0
    8.3414  -14.8986   22.8471 C   0  0  0  0  0  0  0  0  0  0  0  0
    7.4499  -14.7150   21.8691 N   0  0  0  0  0  0  0  0  0  0  0  0
    6.9843  -15.9274   21.5076 C   0  0  0  0  0  0  0  0  0  0  0  0
    7.5905  -16.8402   22.2634 N   0  0  0  0  0  0  0  0  0  0  0  0
   11.5487  -17.5342   24.9419 C   0  0  0  0  0  0  0  0  0  0  0  0
   12.1618  -18.6064   24.7310 O   0  0  0  0  0  0  0  0  0  0  0  0
   11.6057  -16.9781   26.2017 O   0  0  0  0  0  0  0  0  0  0  0  0
  1  2  1  0
  3  2  1  0
  4  3  1  0
  5  4  1  0
  5  6  1  1
  7  5  1  0
  8  7  2  0
  9  7  1  0
 10  9  1  0
 11 12  1  0
 10 11  1  6
 12 13  1  0
 13 17  1  0
 13 14  2  0
 15 10  1  0
 15 18  1  0
 16 15  2  0
 19 18  1  0
 19 20  1  1
 20 21  1  0
 21 22  2  0
 21 25  1  0
 22 23  1  0
 23 24  1  0
 25 24  2  0
 26 19  1  0
 27 26  2  0
 28 26  1  0
M  END
$$$$
