MEH.pdb
     RDKit          3D

 28 28  0  0  1  0  0  0  0  0999 V2000
    6.3343  -11.9976   24.6437 C   0  0  0  0  0  0  0  0  0  0  0  0
    5.8543  -13.2232   25.8653 S   0  0  0  0  0  0  0  0  0  0  0  0
    5.9812  -14.9052   25.2571 C   0  0  0  0  0  0  0  0  0  0  0  0
    6.2741  -14.9568   23.7889 C   0  0  0  0  0  0  0  0  0  0  0  0
    6.2539  -16.3515   23.2031 C   0  0  2  0  0  0  0  0  0  0  0  0
    5.5295  -17.2291   24.0883 N   0  0  0  0  0  0  0  0  0  0  0  0
    7.6914  -16.7764   23.1199 C   0  0  0  0  0  0  0  0  0  0  0  0
    8.1183  -17.7733   23.7645 O   0  0  0  0  0  0  0  0  0  0  0  0
    8.6517  -16.1229   22.3424 N   0  0  0  0  0  0  0  0  0  0  0  0
   10.0390  -16.4238   22.2067 C   0  0  1  0  0  0  0  0  0  0  0  0
   10.7840  -15.6707   21.1682 C   0  0  0  0  0  0  0  0  0  0  0  0
   12.2536  -16.0321   21.0676 C   0  0  0  0  0  0  0  0  0  0  0  0
   12.4448  -17.4029   20.5427 C   0  0  0  0  0  0  0  0  0  0  0  0
   12.4871  -18.3815   21.3109 O   0  0  0  0  0  0  0  0  0  0  0  0
   10.6860  -16.2961   23.5247 C   0  0  0  0  0  0  0  0  0  0  0  0
   11.9007  -16.6017   23.6805 O   0  0  0  0  0  0  0  0  0  0  0  0
   12.5778  -17.6154   19.1807 O   0  0  0  0  0  0  0  0  0  0  0  0
   10.0180  -15.8287   24.7111 N   0  0  0  0  0  0  0  0  0  0  0  0
   10.7779  -15.7213   25.9371 C   0  0  1  0  0  0  0  0  0  0  0  0
    9.8695  -15.4650   27.0783 C   0  0  0  0  0  0  0  0  0  0  0  0
   10.5187  -15.3472   28.3965 C   0  0  0  0  0  0  0  0  0  0  0  0
   11.1035  -14.1714   28.8836 C   0  0  0  0  0  0  0  0  0  0  0  0
   11.6144  -14.4080   30.0951 N   0  0  0  0  0  0  0  0  0  0  0  0
   11.3719  -15.6996   30.3958 C   0  0  0  0  0  0  0  0  0  0  0  0
   10.7178  -16.2422   29.3711 N   0  0  0  0  0  0  0  0  0  0  0  0
   11.5526  -17.0045   26.1632 C   0  0  0  0  0  0  0  0  0  0  0  0
   12.7925  -16.9591   26.3376 O   0  0  0  0  0  0  0  0  0  0  0  0
   10.9278  -18.2328   26.1837 O   0  0  0  0  0  0  0  0  0  0  0  0
  1  2  1  0
  3  2  1  0
  4  3  1  0
  5  4  1  0
  5  6  1  1
  7  5  1  0
  8  7  2  0
  9  7  1  0
 10  9  1  0
 11 12  1  0
 10 11  1  6
 12 13  1  0
 13 17  1  0
 13 14  2  0
 15 10  1  0
 15 18  1  0
 16 15  2  0
 19 18  1  0
 19 20  1  1
 20 21  1  0
 21 22  2  0
 21 25  1  0
 22 23  1  0
 23 24  1  0
 25 24  2  0
 26 19  1  0
 27 26  2  0
 28 26  1  0
M  END
$$$$
