MEH.pdb
     RDKit          3D

 28 28  0  0  1  0  0  0  0  0999 V2000
    7.5252  -11.2870   20.0428 C   0  0  0  0  0  0  0  0  0  0  0  0
    8.2870  -12.7004   20.8468 S   0  0  0  0  0  0  0  0  0  0  0  0
    7.1618  -14.0819   21.0483 C   0  0  0  0  0  0  0  0  0  0  0  0
    7.7777  -15.2067   21.8229 C   0  0  0  0  0  0  0  0  0  0  0  0
    8.7369  -16.0577   21.0201 C   0  0  2  0  0  0  0  0  0  0  0  0
    7.9956  -16.8248   20.0503 N   0  0  0  0  0  0  0  0  0  0  0  0
    9.3905  -16.9759   22.0119 C   0  0  0  0  0  0  0  0  0  0  0  0
    8.7641  -17.9474   22.5172 O   0  0  0  0  0  0  0  0  0  0  0  0
   10.7117  -16.8372   22.4468 N   0  0  0  0  0  0  0  0  0  0  0  0
   11.4156  -17.6172   23.4110 C   0  0  1  0  0  0  0  0  0  0  0  0
   12.8970  -17.5593   23.3594 C   0  0  0  0  0  0  0  0  0  0  0  0
   13.4874  -17.8653   21.9961 C   0  0  0  0  0  0  0  0  0  0  0  0
   14.9591  -17.7066   21.9895 C   0  0  0  0  0  0  0  0  0  0  0  0
   15.5423  -17.1140   22.9159 O   0  0  0  0  0  0  0  0  0  0  0  0
   10.9156  -17.2788   24.7554 C   0  0  0  0  0  0  0  0  0  0  0  0
   11.0349  -16.1087   25.2135 O   0  0  0  0  0  0  0  0  0  0  0  0
   15.7109  -18.2209   20.9463 O   0  0  0  0  0  0  0  0  0  0  0  0
   10.2693  -18.2155   25.6369 N   0  0  0  0  0  0  0  0  0  0  0  0
    9.8704  -17.7666   26.9527 C   0  0  1  0  0  0  0  0  0  0  0  0
    8.4004  -17.8686   27.1013 C   0  0  0  0  0  0  0  0  0  0  0  0
    7.6068  -17.0379   26.1776 C   0  0  0  0  0  0  0  0  0  0  0  0
    7.8472  -15.6792   25.9368 C   0  0  0  0  0  0  0  0  0  0  0  0
    6.9425  -15.2241   25.0654 N   0  0  0  0  0  0  0  0  0  0  0  0
    6.1329  -16.2525   24.7423 C   0  0  0  0  0  0  0  0  0  0  0  0
    6.5452  -17.3246   25.4152 N   0  0  0  0  0  0  0  0  0  0  0  0
   10.5623  -18.6114   28.0040 C   0  0  0  0  0  0  0  0  0  0  0  0
   10.3207  -18.4141   29.2175 O   0  0  0  0  0  0  0  0  0  0  0  0
   11.4583  -19.6013   27.6620 O   0  0  0  0  0  0  0  0  0  0  0  0
  1  2  1  0
  3  2  1  0
  4  3  1  0
  5  4  1  0
  5  6  1  6
  7  5  1  0
  8  7  2  0
  9  7  1  0
 10  9  1  0
 11 12  1  0
 10 11  1  1
 12 13  1  0
 13 17  1  0
 13 14  2  0
 15 10  1  0
 15 18  1  0
 16 15  2  0
 19 18  1  0
 19 20  1  6
 20 21  1  0
 21 22  2  0
 21 25  1  0
 22 23  1  0
 23 24  1  0
 25 24  2  0
 26 19  1  0
 27 26  2  0
 28 26  1  0
M  END
$$$$
