CHV.pdb
     RDKit          3D

 24 24  0  0  1  0  0  0  0  0999 V2000
   24.2143  -12.3650  -17.5906 N   0  0  0  0  0  0  0  0  0  0  0  0
   24.2124  -11.5891  -16.3770 C   0  0  1  0  0  0  0  0  0  0  0  0
   25.5984  -11.0959  -16.1256 C   0  0  0  0  0  0  0  0  0  0  0  0
   25.5454   -9.2792  -16.0465 S   0  0  0  0  0  0  0  0  0  0  0  0
   23.1755  -10.5701  -16.3863 C   0  0  0  0  0  0  0  0  0  0  0  0
   22.8396  -10.0625  -17.4868 O   0  0  0  0  0  0  0  0  0  0  0  0
   22.5046  -10.0994  -15.2254 N   0  0  0  0  0  0  0  0  0  0  0  0
   21.4896   -9.0427  -15.3182 C   0  0  1  0  0  0  0  0  0  0  0  0
   20.2491   -9.5530  -14.6563 C   0  0  0  0  0  0  0  0  0  0  0  0
   19.5342  -10.5964  -15.4219 C   0  0  0  0  0  0  0  0  0  0  0  0
   18.6747  -10.2652  -16.4645 C   0  0  0  0  0  0  0  0  0  0  0  0
   18.1835  -11.4199  -16.9569 N   0  0  0  0  0  0  0  0  0  0  0  0
   18.7088  -12.4414  -16.2566 C   0  0  0  0  0  0  0  0  0  0  0  0
   19.5250  -11.9295  -15.3303 N   0  0  0  0  0  0  0  0  0  0  0  0
   22.0459   -7.8166  -14.6537 C   0  0  0  0  0  0  0  0  0  0  0  0
   22.6650   -7.8305  -13.5727 O   0  0  0  0  0  0  0  0  0  0  0  0
   22.2930   -4.2631  -16.9318 C   0  0  0  0  0  0  0  0  0  0  0  0
   23.2266   -4.6237  -15.8220 C   0  0  2  0  0  0  0  0  0  0  0  0
   24.3854   -5.4461  -16.3357 C   0  0  0  0  0  0  0  0  0  0  0  0
   22.4604   -5.3445  -14.7404 C   0  0  2  0  0  0  0  0  0  0  0  0
   21.8655   -6.5343  -15.2850 N   0  0  0  0  0  0  0  0  0  0  0  0
   21.4045   -4.4480  -14.1745 C   0  0  0  0  0  0  0  0  0  0  0  0
   21.7305   -3.4929  -13.4306 O   0  0  0  0  0  0  0  0  0  0  0  0
   20.0600   -4.6336  -14.4436 O   0  0  0  0  0  0  0  0  0  0  0  0
  2  1  1  6
  2  5  1  0
  3  2  1  0
  4  3  1  0
  5  6  2  0
  7  5  1  0
  7  8  1  0
  9 10  1  0
  8  9  1  1
 10 14  1  0
 11 12  1  0
 11 10  2  0
 12 13  1  0
 13 14  2  0
 15  8  1  0
 15 21  1  0
 16 15  2  0
 18 19  1  6
 18 17  1  0
 20 21  1  6
 20 18  1  0
 22 20  1  0
 23 22  2  0
 24 22  1  0
M  END
$$$$
