CHV.pdb
     RDKit          3D

 24 24  0  0  1  0  0  0  0  0999 V2000
   18.5387  -12.4461  -15.1347 N   0  0  0  0  0  0  0  0  0  0  0  0
   18.6546  -11.5576  -16.2626 C   0  0  1  0  0  0  0  0  0  0  0  0
   17.3216  -11.4548  -16.9258 C   0  0  0  0  0  0  0  0  0  0  0  0
   16.8627  -13.1084  -17.5299 S   0  0  0  0  0  0  0  0  0  0  0  0
   19.2727  -10.2938  -15.8962 C   0  0  0  0  0  0  0  0  0  0  0  0
   19.0682   -9.8349  -14.7434 O   0  0  0  0  0  0  0  0  0  0  0  0
   20.1030   -9.5285  -16.7590 N   0  0  0  0  0  0  0  0  0  0  0  0
   20.7377   -8.2903  -16.2907 C   0  0  1  0  0  0  0  0  0  0  0  0
   22.1615   -8.3151  -16.7483 C   0  0  0  0  0  0  0  0  0  0  0  0
   23.0298   -9.2415  -15.9907 C   0  0  0  0  0  0  0  0  0  0  0  0
   22.5639   -9.9058  -14.8607 C   0  0  0  0  0  0  0  0  0  0  0  0
   23.5771  -10.6665  -14.4006 N   0  0  0  0  0  0  0  0  0  0  0  0
   24.6417  -10.4926  -15.2045 C   0  0  0  0  0  0  0  0  0  0  0  0
   24.2973   -9.6276  -16.1633 N   0  0  0  0  0  0  0  0  0  0  0  0
   19.9606   -7.1371  -16.8571 C   0  0  0  0  0  0  0  0  0  0  0  0
   19.5803   -7.0684  -18.0415 O   0  0  0  0  0  0  0  0  0  0  0  0
   16.7656   -6.0807  -15.9374 C   0  0  0  0  0  0  0  0  0  0  0  0
   17.5551   -4.8311  -15.7172 C   0  0  2  0  0  0  0  0  0  0  0  0
   16.7535   -3.6097  -16.1027 C   0  0  0  0  0  0  0  0  0  0  0  0
   18.8515   -4.9187  -16.4841 C   0  0  2  0  0  0  0  0  0  0  0  0
   19.6221   -6.0308  -15.9987 N   0  0  0  0  0  0  0  0  0  0  0  0
   19.6242   -3.6463  -16.3336 C   0  0  0  0  0  0  0  0  0  0  0  0
   20.4290   -3.5144  -15.3814 O   0  0  0  0  0  0  0  0  0  0  0  0
   19.4840   -2.5913  -17.2180 O   0  0  0  0  0  0  0  0  0  0  0  0
  2  1  1  1
  2  5  1  0
  3  2  1  0
  4  3  1  0
  5  6  2  0
  7  5  1  0
  7  8  1  0
  9 10  1  0
  8  9  1  6
 10 14  1  0
 11 12  1  0
 11 10  2  0
 12 13  1  0
 13 14  2  0
 15  8  1  0
 15 21  1  0
 16 15  2  0
 18 19  1  6
 18 17  1  0
 20 21  1  1
 20 18  1  0
 22 20  1  0
 23 22  2  0
 24 22  1  0
M  END
$$$$
