CHV.pdb
     RDKit          3D

 24 24  0  0  1  0  0  0  0  0999 V2000
   23.1394  -12.5295  -18.2971 N   0  0  0  0  0  0  0  0  0  0  0  0
   23.4390  -11.8172  -17.0815 C   0  0  1  0  0  0  0  0  0  0  0  0
   24.8778  -11.4213  -17.1047 C   0  0  0  0  0  0  0  0  0  0  0  0
   25.8639  -12.8445  -16.5461 S   0  0  0  0  0  0  0  0  0  0  0  0
   22.4950  -10.7387  -16.8381 C   0  0  0  0  0  0  0  0  0  0  0  0
   22.1304  -10.0267  -17.8086 O   0  0  0  0  0  0  0  0  0  0  0  0
   21.9467  -10.4264  -15.5649 N   0  0  0  0  0  0  0  0  0  0  0  0
   21.0291   -9.2926  -15.3973 C   0  0  1  0  0  0  0  0  0  0  0  0
   19.8562   -9.7780  -14.6060 C   0  0  0  0  0  0  0  0  0  0  0  0
   18.8196  -10.4616  -15.4086 C   0  0  0  0  0  0  0  0  0  0  0  0
   18.8721  -10.4702  -16.7987 C   0  0  0  0  0  0  0  0  0  0  0  0
   17.8013  -11.1644  -17.2328 N   0  0  0  0  0  0  0  0  0  0  0  0
   17.0983  -11.5792  -16.1634 C   0  0  0  0  0  0  0  0  0  0  0  0
   17.7253  -11.1472  -15.0650 N   0  0  0  0  0  0  0  0  0  0  0  0
   21.7845   -8.1923  -14.7096 C   0  0  0  0  0  0  0  0  0  0  0  0
   22.4887   -8.3593  -13.6955 O   0  0  0  0  0  0  0  0  0  0  0  0
   22.3202   -4.4624  -16.6912 C   0  0  0  0  0  0  0  0  0  0  0  0
   23.2364   -5.0465  -15.6652 C   0  0  2  0  0  0  0  0  0  0  0  0
   24.2594   -5.9543  -16.3075 C   0  0  0  0  0  0  0  0  0  0  0  0
   22.4205   -5.7678  -14.6210 C   0  0  2  0  0  0  0  0  0  0  0  0
   21.7062   -6.8534  -15.2354 N   0  0  0  0  0  0  0  0  0  0  0  0
   21.4639   -4.8186  -13.9708 C   0  0  0  0  0  0  0  0  0  0  0  0
   20.2552   -4.8258  -14.3037 O   0  0  0  0  0  0  0  0  0  0  0  0
   21.8662   -3.9179  -13.0005 O   0  0  0  0  0  0  0  0  0  0  0  0
  2  1  1  6
  2  5  1  0
  3  2  1  0
  4  3  1  0
  5  6  2  0
  7  5  1  0
  7  8  1  0
  9 10  1  0
  8  9  1  1
 10 14  1  0
 11 12  1  0
 11 10  2  0
 12 13  1  0
 13 14  2  0
 15  8  1  0
 15 21  1  0
 16 15  2  0
 18 19  1  6
 18 17  1  0
 20 21  1  6
 20 18  1  0
 22 20  1  0
 23 22  2  0
 24 22  1  0
M  END
$$$$
