CHV.pdb
     RDKit          3D

 24 24  0  0  1  0  0  0  0  0999 V2000
   19.5047  -16.9521  -16.9050 N   0  0  0  0  0  0  0  0  0  0  0  0
   19.2599  -15.9669  -15.8830 C   0  0  1  0  0  0  0  0  0  0  0  0
   20.0481  -16.3341  -14.6700 C   0  0  0  0  0  0  0  0  0  0  0  0
   19.1767  -17.6851  -13.8184 S   0  0  0  0  0  0  0  0  0  0  0  0
   19.4594  -14.6137  -16.3753 C   0  0  0  0  0  0  0  0  0  0  0  0
   20.4127  -14.3945  -17.1658 O   0  0  0  0  0  0  0  0  0  0  0  0
   18.6435  -13.5048  -16.0230 N   0  0  0  0  0  0  0  0  0  0  0  0
   18.9417  -12.1592  -16.5288 C   0  0  1  0  0  0  0  0  0  0  0  0
   17.6565  -11.5672  -17.0137 C   0  0  0  0  0  0  0  0  0  0  0  0
   17.2261  -12.0495  -18.3435 C   0  0  0  0  0  0  0  0  0  0  0  0
   16.3875  -13.1517  -18.4747 C   0  0  0  0  0  0  0  0  0  0  0  0
   16.1803  -13.3389  -19.7934 N   0  0  0  0  0  0  0  0  0  0  0  0
   16.8587  -12.3953  -20.4712 C   0  0  0  0  0  0  0  0  0  0  0  0
   17.4877  -11.6209  -19.5818 N   0  0  0  0  0  0  0  0  0  0  0  0
   19.5600  -11.3768  -15.4063 C   0  0  0  0  0  0  0  0  0  0  0  0
   19.0833  -11.3124  -14.2570 O   0  0  0  0  0  0  0  0  0  0  0  0
   23.1020  -11.8166  -14.6003 C   0  0  0  0  0  0  0  0  0  0  0  0
   22.9429  -10.3313  -14.6442 C   0  0  2  0  0  0  0  0  0  0  0  0
   23.7273   -9.6703  -13.5348 C   0  0  0  0  0  0  0  0  0  0  0  0
   21.4758   -9.9849  -14.5800 C   0  0  2  0  0  0  0  0  0  0  0  0
   20.7788  -10.6479  -15.6481 N   0  0  0  0  0  0  0  0  0  0  0  0
   21.2931   -8.5033  -14.6814 C   0  0  0  0  0  0  0  0  0  0  0  0
   21.1823   -7.9644  -15.8079 O   0  0  0  0  0  0  0  0  0  0  0  0
   21.2405   -7.6901  -13.5630 O   0  0  0  0  0  0  0  0  0  0  0  0
  2  1  1  6
  2  5  1  0
  3  2  1  0
  4  3  1  0
  5  6  2  0
  7  5  1  0
  7  8  1  0
  9 10  1  0
  8  9  1  1
 10 14  1  0
 11 12  1  0
 11 10  2  0
 12 13  1  0
 13 14  2  0
 15  8  1  0
 15 21  1  0
 16 15  2  0
 18 19  1  1
 18 17  1  0
 20 21  1  6
 20 18  1  0
 22 20  1  0
 23 22  2  0
 24 22  1  0
M  END
$$$$
