CHV.pdb
     RDKit          3D

 24 24  0  0  1  0  0  0  0  0999 V2000
   28.2127  -22.0033  -16.9424 N   0  0  0  0  0  0  0  0  0  0  0  0
   28.1028  -21.0040  -15.9108 C   0  0  1  0  0  0  0  0  0  0  0  0
   28.2126  -19.6557  -16.5413 C   0  0  0  0  0  0  0  0  0  0  0  0
   26.7286  -19.3856  -17.5584 S   0  0  0  0  0  0  0  0  0  0  0  0
   26.9312  -21.2129  -15.0758 C   0  0  0  0  0  0  0  0  0  0  0  0
   26.0185  -21.9690  -15.4966 O   0  0  0  0  0  0  0  0  0  0  0  0
   26.7400  -20.6162  -13.8004 N   0  0  0  0  0  0  0  0  0  0  0  0
   25.5212  -20.8736  -13.0233 C   0  0  1  0  0  0  0  0  0  0  0  0
   25.7826  -20.4298  -11.6190 C   0  0  0  0  0  0  0  0  0  0  0  0
   24.6729  -20.6956  -10.6787 C   0  0  0  0  0  0  0  0  0  0  0  0
   23.5435  -21.4035  -11.0768 C   0  0  0  0  0  0  0  0  0  0  0  0
   22.7245  -21.4790  -10.0088 N   0  0  0  0  0  0  0  0  0  0  0  0
   23.3092  -20.8458   -8.9759 C   0  0  0  0  0  0  0  0  0  0  0  0
   24.4883  -20.3759   -9.3944 N   0  0  0  0  0  0  0  0  0  0  0  0
   24.3973  -20.1214  -13.6755 C   0  0  0  0  0  0  0  0  0  0  0  0
   24.4809  -18.9391  -14.0594 O   0  0  0  0  0  0  0  0  0  0  0  0
   20.5743  -20.1757  -16.5030 C   0  0  0  0  0  0  0  0  0  0  0  0
   21.6737  -20.8935  -15.7893 C   0  0  2  0  0  0  0  0  0  0  0  0
   21.2762  -22.3172  -15.4761 C   0  0  0  0  0  0  0  0  0  0  0  0
   22.0445  -20.1257  -14.5445 C   0  0  2  0  0  0  0  0  0  0  0  0
   23.1355  -20.7855  -13.8807 N   0  0  0  0  0  0  0  0  0  0  0  0
   20.8636  -20.0274  -13.6309 C   0  0  0  0  0  0  0  0  0  0  0  0
   20.7631  -20.8088  -12.6556 O   0  0  0  0  0  0  0  0  0  0  0  0
   19.8611  -19.0931  -13.8221 O   0  0  0  0  0  0  0  0  0  0  0  0
  2  1  1  6
  2  5  1  0
  3  2  1  0
  4  3  1  0
  5  6  2  0
  7  5  1  0
  7  8  1  0
  9 10  1  0
  8  9  1  1
 10 14  1  0
 11 12  1  0
 11 10  2  0
 12 13  1  0
 13 14  2  0
 15  8  1  0
 15 21  1  0
 16 15  2  0
 18 19  1  1
 18 17  1  0
 20 21  1  1
 20 18  1  0
 22 20  1  0
 23 22  2  0
 24 22  1  0
M  END
$$$$
