CHV.pdb
     RDKit          3D

 24 24  0  0  1  0  0  0  0  0999 V2000
   24.0533  -19.0883  -18.6101 N   0  0  0  0  0  0  0  0  0  0  0  0
   23.9928  -18.6152  -17.2509 C   0  0  1  0  0  0  0  0  0  0  0  0
   22.5608  -18.5400  -16.8370 C   0  0  0  0  0  0  0  0  0  0  0  0
   21.8053  -17.1129  -17.6750 S   0  0  0  0  0  0  0  0  0  0  0  0
   24.8612  -19.3802  -16.3711 C   0  0  0  0  0  0  0  0  0  0  0  0
   24.8039  -20.6359  -16.4109 O   0  0  0  0  0  0  0  0  0  0  0  0
   25.7832  -18.8035  -15.4564 N   0  0  0  0  0  0  0  0  0  0  0  0
   26.6026  -19.6487  -14.5791 C   0  0  1  0  0  0  0  0  0  0  0  0
   28.0369  -19.3632  -14.8929 C   0  0  0  0  0  0  0  0  0  0  0  0
   28.5010  -19.9167  -16.1830 C   0  0  0  0  0  0  0  0  0  0  0  0
   28.5953  -19.1187  -17.3186 C   0  0  0  0  0  0  0  0  0  0  0  0
   29.0422  -19.9029  -18.3197 N   0  0  0  0  0  0  0  0  0  0  0  0
   29.2241  -21.1466  -17.8402 C   0  0  0  0  0  0  0  0  0  0  0  0
   28.8929  -21.1418  -16.5454 N   0  0  0  0  0  0  0  0  0  0  0  0
   26.2374  -19.3216  -13.1599 C   0  0  0  0  0  0  0  0  0  0  0  0
   26.2180  -18.1662  -12.6944 O   0  0  0  0  0  0  0  0  0  0  0  0
   23.8077  -21.9935  -11.0006 C   0  0  0  0  0  0  0  0  0  0  0  0
   23.9327  -20.5110  -10.8594 C   0  0  2  0  0  0  0  0  0  0  0  0
   23.1007  -19.7966  -11.8989 C   0  0  0  0  0  0  0  0  0  0  0  0
   25.3886  -20.1235  -10.9402 C   0  0  2  0  0  0  0  0  0  0  0  0
   25.8842  -20.3918  -12.2625 N   0  0  0  0  0  0  0  0  0  0  0  0
   26.1800  -20.8855   -9.9243 C   0  0  0  0  0  0  0  0  0  0  0  0
   26.8955  -21.8493  -10.2863 O   0  0  0  0  0  0  0  0  0  0  0  0
   26.1535  -20.5640   -8.5788 O   0  0  0  0  0  0  0  0  0  0  0  0
  2  1  1  6
  2  5  1  0
  3  2  1  0
  4  3  1  0
  5  6  2  0
  7  5  1  0
  7  8  1  0
  9 10  1  0
  8  9  1  1
 10 14  1  0
 11 12  1  0
 11 10  2  0
 12 13  1  0
 13 14  2  0
 15  8  1  0
 15 21  1  0
 16 15  2  0
 18 19  1  6
 18 17  1  0
 20 21  1  6
 20 18  1  0
 22 20  1  0
 23 22  2  0
 24 22  1  0
M  END
$$$$
