CHV.pdb
     RDKit          3D

 24 24  0  0  1  0  0  0  0  0999 V2000
   20.2458  -15.7820  -17.5507 N   0  0  0  0  0  0  0  0  0  0  0  0
   19.8875  -14.4307  -17.8978 C   0  0  1  0  0  0  0  0  0  0  0  0
   18.4027  -14.3506  -18.0265 C   0  0  0  0  0  0  0  0  0  0  0  0
   17.9618  -12.6285  -18.4134 S   0  0  0  0  0  0  0  0  0  0  0  0
   20.4930  -13.4613  -16.9995 C   0  0  0  0  0  0  0  0  0  0  0  0
   20.3004  -13.5835  -15.7628 O   0  0  0  0  0  0  0  0  0  0  0  0
   21.2982  -12.3700  -17.4239 N   0  0  0  0  0  0  0  0  0  0  0  0
   21.8034  -11.3862  -16.4582 C   0  0  1  0  0  0  0  0  0  0  0  0
   23.2886  -11.3186  -16.6222 C   0  0  0  0  0  0  0  0  0  0  0  0
   24.0039  -12.5468  -16.2147 C   0  0  0  0  0  0  0  0  0  0  0  0
   23.9055  -13.0429  -14.9187 C   0  0  0  0  0  0  0  0  0  0  0  0
   24.6615  -14.1575  -14.8612 N   0  0  0  0  0  0  0  0  0  0  0  0
   25.2166  -14.3607  -16.0697 C   0  0  0  0  0  0  0  0  0  0  0  0
   24.8106  -13.3786  -16.8802 N   0  0  0  0  0  0  0  0  0  0  0  0
   21.1229  -10.0782  -16.7415 C   0  0  0  0  0  0  0  0  0  0  0  0
   20.9712   -9.6051  -17.8840 O   0  0  0  0  0  0  0  0  0  0  0  0
   17.7571   -9.2076  -15.9091 C   0  0  0  0  0  0  0  0  0  0  0  0
   18.5455   -8.1255  -15.2452 C   0  0  2  0  0  0  0  0  0  0  0  0
   17.8250   -6.8002  -15.3320 C   0  0  0  0  0  0  0  0  0  0  0  0
   19.9207   -8.0601  -15.8624 C   0  0  2  0  0  0  0  0  0  0  0  0
   20.6055   -9.3046  -15.6419 N   0  0  0  0  0  0  0  0  0  0  0  0
   20.6971   -6.9276  -15.2679 C   0  0  0  0  0  0  0  0  0  0  0  0
   21.3187   -7.0946  -14.1920 O   0  0  0  0  0  0  0  0  0  0  0  0
   20.7578   -5.6821  -15.8678 O   0  0  0  0  0  0  0  0  0  0  0  0
  2  1  1  1
  2  5  1  0
  3  2  1  0
  4  3  1  0
  5  6  2  0
  7  5  1  0
  7  8  1  0
  9 10  1  0
  8  9  1  6
 10 14  1  0
 11 12  1  0
 11 10  2  0
 12 13  1  0
 13 14  2  0
 15  8  1  0
 15 21  1  0
 16 15  2  0
 18 19  1  6
 18 17  1  0
 20 21  1  1
 20 18  1  0
 22 20  1  0
 23 22  2  0
 24 22  1  0
M  END
$$$$
