CHV.pdb
     RDKit          3D

 24 24  0  0  1  0  0  0  0  0999 V2000
   26.6408  -20.0054  -16.9065 N   0  0  0  0  0  0  0  0  0  0  0  0
   25.3672  -19.3437  -16.7832 C   0  0  1  0  0  0  0  0  0  0  0  0
   24.8936  -18.9659  -18.1471 C   0  0  0  0  0  0  0  0  0  0  0  0
   23.4394  -17.8887  -17.9614 S   0  0  0  0  0  0  0  0  0  0  0  0
   24.4297  -20.1163  -15.9848 C   0  0  0  0  0  0  0  0  0  0  0  0
   24.5165  -21.3708  -15.9997 O   0  0  0  0  0  0  0  0  0  0  0  0
   23.4077  -19.5484  -15.1771 N   0  0  0  0  0  0  0  0  0  0  0  0
   22.5174  -20.4004  -14.3789 C   0  0  1  0  0  0  0  0  0  0  0  0
   22.6341  -19.9605  -12.9541 C   0  0  0  0  0  0  0  0  0  0  0  0
   23.7287  -20.6109  -12.2024 C   0  0  0  0  0  0  0  0  0  0  0  0
   24.5380  -21.5747  -12.7953 C   0  0  0  0  0  0  0  0  0  0  0  0
   25.4300  -21.9714  -11.8658 N   0  0  0  0  0  0  0  0  0  0  0  0
   25.1971  -21.2883  -10.7304 C   0  0  0  0  0  0  0  0  0  0  0  0
   24.1645  -20.4678  -10.9474 N   0  0  0  0  0  0  0  0  0  0  0  0
   21.1280  -20.2478  -14.9270 C   0  0  0  0  0  0  0  0  0  0  0  0
   20.6009  -19.1508  -15.1931 O   0  0  0  0  0  0  0  0  0  0  0  0
   17.4484  -22.4198  -17.2829 C   0  0  0  0  0  0  0  0  0  0  0  0
   18.7598  -22.5701  -16.5822 C   0  0  2  0  0  0  0  0  0  0  0  0
   18.7859  -23.8292  -15.7474 C   0  0  0  0  0  0  0  0  0  0  0  0
   19.0256  -21.3386  -15.7520 C   0  0  2  0  0  0  0  0  0  0  0  0
   20.3361  -21.4268  -15.1682 N   0  0  0  0  0  0  0  0  0  0  0  0
   17.9880  -21.2069  -14.6819 C   0  0  0  0  0  0  0  0  0  0  0  0
   18.1920  -21.7076  -13.5507 O   0  0  0  0  0  0  0  0  0  0  0  0
   16.7923  -20.5437  -14.8940 O   0  0  0  0  0  0  0  0  0  0  0  0
  2  1  1  6
  2  5  1  0
  3  2  1  0
  4  3  1  0
  5  6  2  0
  7  5  1  0
  7  8  1  0
  9 10  1  0
  8  9  1  1
 10 14  1  0
 11 12  1  0
 11 10  2  0
 12 13  1  0
 13 14  2  0
 15  8  1  0
 15 21  1  0
 16 15  2  0
 18 19  1  1
 18 17  1  0
 20 21  1  1
 20 18  1  0
 22 20  1  0
 23 22  2  0
 24 22  1  0
M  END
$$$$
