AVV.pdb
     RDKit          3D

 20 19  0  0  1  0  0  0  0  0999 V2000
   15.8942  -14.7658  -17.3825 C   0  0  0  0  0  0  0  0  0  0  0  0
   17.3169  -14.9152  -17.8737 C   0  0  2  0  0  0  0  0  0  0  0  0
   17.8389  -16.2408  -17.6065 N   0  0  0  0  0  0  0  0  0  0  0  0
   18.1572  -13.9404  -17.1629 C   0  0  0  0  0  0  0  0  0  0  0  0
   18.3756  -14.1214  -15.9226 O   0  0  0  0  0  0  0  0  0  0  0  0
   21.7765  -12.8400  -17.4807 C   0  0  0  0  0  0  0  0  0  0  0  0
   20.8946  -11.6265  -17.5502 C   0  0  1  0  0  0  0  0  0  0  0  0
   20.7639  -11.1643  -18.9680 C   0  0  0  0  0  0  0  0  0  0  0  0
   19.5218  -11.8683  -16.9729 C   0  0  2  0  0  0  0  0  0  0  0  0
   18.7534  -12.8011  -17.7471 N   0  0  0  0  0  0  0  0  0  0  0  0
   18.7927  -10.5650  -16.8046 C   0  0  0  0  0  0  0  0  0  0  0  0
   18.1447  -10.1069  -17.7801 O   0  0  0  0  0  0  0  0  0  0  0  0
   16.4480   -7.2280  -14.3116 C   0  0  0  0  0  0  0  0  0  0  0  0
   17.0005   -8.6221  -14.4567 C   0  0  1  0  0  0  0  0  0  0  0  0
   15.9045   -9.5914  -14.7515 C   0  0  0  0  0  0  0  0  0  0  0  0
   18.0883   -8.6002  -15.5000 C   0  0  2  0  0  0  0  0  0  0  0  0
   18.8028   -9.8326  -15.6005 N   0  0  0  0  0  0  0  0  0  0  0  0
   19.0199   -7.4863  -15.1270 C   0  0  0  0  0  0  0  0  0  0  0  0
   18.8391   -6.1973  -15.5565 O   0  0  0  0  0  0  0  0  0  0  0  0
   20.0105   -7.7332  -14.3908 O   0  0  0  0  0  0  0  0  0  0  0  0
  2  1  1  1
  2  4  1  0
  3  2  1  0
  4  5  2  0
  7  6  1  6
  7  9  1  0
  7  8  1  0
  9 11  1  0
 10  4  1  0
  9 10  1  6
 11 12  2  0
 14 13  1  6
 14 15  1  0
 14 16  1  0
 16 18  1  0
 16 17  1  1
 17 11  1  0
 18 20  2  0
 18 19  1  0
M  END
$$$$
