AVV.pdb
     RDKit          3D

 20 19  0  0  1  0  0  0  0  0999 V2000
   26.1508  -17.0130  -16.8379 C   0  0  0  0  0  0  0  0  0  0  0  0
   27.2552  -18.0151  -17.0906 C   0  0  2  0  0  0  0  0  0  0  0  0
   27.1132  -18.6531  -18.3844 N   0  0  0  0  0  0  0  0  0  0  0  0
   27.1811  -19.0570  -16.0558 C   0  0  0  0  0  0  0  0  0  0  0  0
   26.3052  -19.9714  -16.1803 O   0  0  0  0  0  0  0  0  0  0  0  0
   29.8439  -19.3233  -12.6590 C   0  0  0  0  0  0  0  0  0  0  0  0
   29.1588  -20.5199  -13.2540 C   0  0  1  0  0  0  0  0  0  0  0  0
   28.9044  -21.5478  -12.1959 C   0  0  0  0  0  0  0  0  0  0  0  0
   27.8594  -20.1698  -13.9361 C   0  0  2  0  0  0  0  0  0  0  0  0
   28.0119  -19.1325  -14.9162 N   0  0  0  0  0  0  0  0  0  0  0  0
   26.8178  -19.8090  -12.9146 C   0  0  0  0  0  0  0  0  0  0  0  0
   26.8303  -18.6509  -12.4246 O   0  0  0  0  0  0  0  0  0  0  0  0
   23.0455  -19.9135  -13.0187 C   0  0  0  0  0  0  0  0  0  0  0  0
   23.4688  -20.6921  -11.8003 C   0  0  1  0  0  0  0  0  0  0  0  0
   23.2560  -22.1540  -12.0134 C   0  0  0  0  0  0  0  0  0  0  0  0
   24.8937  -20.3280  -11.4700 C   0  0  2  0  0  0  0  0  0  0  0  0
   25.8263  -20.7120  -12.4810 N   0  0  0  0  0  0  0  0  0  0  0  0
   25.2215  -21.0059  -10.1736 C   0  0  0  0  0  0  0  0  0  0  0  0
   24.7407  -20.5660   -8.9678 O   0  0  0  0  0  0  0  0  0  0  0  0
   25.9669  -22.0201  -10.1809 O   0  0  0  0  0  0  0  0  0  0  0  0
  2  1  1  1
  2  4  1  0
  3  2  1  0
  4  5  2  0
  7  6  1  1
  7  9  1  0
  7  8  1  0
  9 11  1  0
 10  4  1  0
  9 10  1  6
 11 12  2  0
 14 13  1  6
 14 15  1  0
 14 16  1  0
 16 18  1  0
 16 17  1  6
 17 11  1  0
 18 20  2  0
 18 19  1  0
M  END
$$$$
