AVV.pdb
     RDKit          3D

 20 19  0  0  1  0  0  0  0  0999 V2000
   22.9833  -17.4531  -16.2858 C   0  0  0  0  0  0  0  0  0  0  0  0
   24.2853  -17.9932  -16.8343 C   0  0  2  0  0  0  0  0  0  0  0  0
   24.0995  -18.6318  -18.1222 N   0  0  0  0  0  0  0  0  0  0  0  0
   24.8020  -18.9992  -15.8949 C   0  0  0  0  0  0  0  0  0  0  0  0
   24.0717  -20.0054  -15.6246 O   0  0  0  0  0  0  0  0  0  0  0  0
   28.1988  -20.7719  -16.1402 C   0  0  0  0  0  0  0  0  0  0  0  0
   27.9703  -20.3790  -14.7090 C   0  0  1  0  0  0  0  0  0  0  0  0
   28.8560  -19.2294  -14.3419 C   0  0  0  0  0  0  0  0  0  0  0  0
   26.5336  -20.0158  -14.4252 C   0  0  2  0  0  0  0  0  0  0  0  0
   26.0601  -18.9451  -15.2554 N   0  0  0  0  0  0  0  0  0  0  0  0
   26.3571  -19.6972  -12.9671 C   0  0  0  0  0  0  0  0  0  0  0  0
   26.4865  -18.5042  -12.5912 O   0  0  0  0  0  0  0  0  0  0  0  0
   24.6248  -20.4428   -8.5476 C   0  0  0  0  0  0  0  0  0  0  0  0
   24.7009  -20.9354   -9.9693 C   0  0  1  0  0  0  0  0  0  0  0  0
   23.4198  -20.6656  -10.6860 C   0  0  0  0  0  0  0  0  0  0  0  0
   25.9068  -20.3153  -10.6275 C   0  0  2  0  0  0  0  0  0  0  0  0
   26.0524  -20.6774  -12.0012 N   0  0  0  0  0  0  0  0  0  0  0  0
   27.1030  -20.7611   -9.8412 C   0  0  0  0  0  0  0  0  0  0  0  0
   27.4487  -20.1987   -8.6400 O   0  0  0  0  0  0  0  0  0  0  0  0
   27.8255  -21.6877  -10.2925 O   0  0  0  0  0  0  0  0  0  0  0  0
  2  1  1  1
  2  4  1  0
  3  2  1  0
  4  5  2  0
  7  6  1  6
  7  9  1  0
  7  8  1  0
  9 11  1  0
 10  4  1  0
  9 10  1  6
 11 12  2  0
 14 13  1  1
 14 15  1  0
 14 16  1  0
 16 18  1  0
 16 17  1  6
 17 11  1  0
 18 20  2  0
 18 19  1  0
M  END
$$$$
