AVV.pdb
     RDKit          3D

 20 19  0  0  1  0  0  0  0  0999 V2000
   22.5940  -11.2182  -18.2791 C   0  0  0  0  0  0  0  0  0  0  0  0
   21.2345  -11.4904  -17.6745 C   0  0  2  0  0  0  0  0  0  0  0  0
   20.2991  -11.9886  -18.6634 N   0  0  0  0  0  0  0  0  0  0  0  0
   20.7047  -10.2281  -17.1383 C   0  0  0  0  0  0  0  0  0  0  0  0
   20.5233   -9.2587  -17.9421 O   0  0  0  0  0  0  0  0  0  0  0  0
   18.9284   -9.8869  -13.2830 C   0  0  0  0  0  0  0  0  0  0  0  0
   18.6076   -8.9717  -14.4296 C   0  0  1  0  0  0  0  0  0  0  0  0
   18.1337   -7.6479  -13.9160 C   0  0  0  0  0  0  0  0  0  0  0  0
   19.7810   -8.7601  -15.3540 C   0  0  2  0  0  0  0  0  0  0  0  0
   20.3740   -9.9940  -15.7853 N   0  0  0  0  0  0  0  0  0  0  0  0
   20.7967   -7.8616  -14.7063 C   0  0  0  0  0  0  0  0  0  0  0  0
   21.5739   -8.3517  -13.8476 O   0  0  0  0  0  0  0  0  0  0  0  0
   21.8022   -4.2193  -16.4114 C   0  0  0  0  0  0  0  0  0  0  0  0
   22.7762   -4.9821  -15.5516 C   0  0  1  0  0  0  0  0  0  0  0  0
   23.8175   -4.0655  -15.0008 C   0  0  0  0  0  0  0  0  0  0  0  0
   22.0014   -5.7257  -14.4938 C   0  0  2  0  0  0  0  0  0  0  0  0
   20.9171   -6.4925  -15.0188 N   0  0  0  0  0  0  0  0  0  0  0  0
   21.4932   -4.6964  -13.5294 C   0  0  0  0  0  0  0  0  0  0  0  0
   20.1707   -4.3445  -13.4537 O   0  0  0  0  0  0  0  0  0  0  0  0
   22.3043   -4.1265  -12.7538 O   0  0  0  0  0  0  0  0  0  0  0  0
  2  1  1  6
  2  4  1  0
  3  2  1  0
  4  5  2  0
  7  6  1  1
  7  9  1  0
  7  8  1  0
  9 11  1  0
 10  4  1  0
  9 10  1  1
 11 12  2  0
 14 13  1  1
 14 15  1  0
 14 16  1  0
 16 18  1  0
 16 17  1  6
 17 11  1  0
 18 20  2  0
 18 19  1  0
M  END
$$$$
