AVV.pdb
     RDKit          3D

 20 19  0  0  1  0  0  0  0  0999 V2000
   18.4705   -9.6415  -19.0555 C   0  0  0  0  0  0  0  0  0  0  0  0
   19.4139  -10.6390  -18.4208 C   0  0  2  0  0  0  0  0  0  0  0  0
   18.7921  -11.9389  -18.2644 N   0  0  0  0  0  0  0  0  0  0  0  0
   19.7821  -10.1440  -17.0862 C   0  0  0  0  0  0  0  0  0  0  0  0
   18.8938  -10.1438  -16.1753 O   0  0  0  0  0  0  0  0  0  0  0  0
   22.2569  -11.4719  -14.7150 C   0  0  0  0  0  0  0  0  0  0  0  0
   22.4998   -9.9909  -14.7679 C   0  0  1  0  0  0  0  0  0  0  0  0
   23.7534   -9.7007  -15.5329 C   0  0  0  0  0  0  0  0  0  0  0  0
   21.3500   -9.2319  -15.3828 C   0  0  2  0  0  0  0  0  0  0  0  0
   21.0578   -9.6605  -16.7211 N   0  0  0  0  0  0  0  0  0  0  0  0
   21.6148   -7.7536  -15.3269 C   0  0  0  0  0  0  0  0  0  0  0  0
   22.3302   -7.2355  -16.2221 O   0  0  0  0  0  0  0  0  0  0  0  0
   20.4091   -3.2423  -14.2460 C   0  0  0  0  0  0  0  0  0  0  0  0
   20.0465   -4.7032  -14.3098 C   0  0  1  0  0  0  0  0  0  0  0  0
   19.1260   -4.9645  -15.4553 C   0  0  0  0  0  0  0  0  0  0  0  0
   21.3182   -5.5111  -14.3567 C   0  0  2  0  0  0  0  0  0  0  0  0
   21.0964   -6.9212  -14.3146 N   0  0  0  0  0  0  0  0  0  0  0  0
   22.1463   -5.0784  -13.1841 C   0  0  0  0  0  0  0  0  0  0  0  0
   22.9814   -3.9926  -13.2303 O   0  0  0  0  0  0  0  0  0  0  0  0
   22.0797   -5.7307  -12.1097 O   0  0  0  0  0  0  0  0  0  0  0  0
  2  1  1  1
  2  4  1  0
  3  2  1  0
  4  5  2  0
  7  6  1  6
  7  9  1  0
  7  8  1  0
  9 11  1  0
 10  4  1  0
  9 10  1  6
 11 12  2  0
 14 13  1  6
 14 15  1  0
 14 16  1  0
 16 18  1  0
 16 17  1  1
 17 11  1  0
 18 20  2  0
 18 19  1  0
M  END
$$$$
