KEN.pdb
     RDKit          3D

 27 26  0  0  1  0  0  0  0  0999 V2000
   10.1412  -17.3789   16.5227 N   0  0  0  0  0  0  0  0  0  0  0  0
    9.4883  -17.7101   17.7591 C   0  0  1  0  0  0  0  0  0  0  0  0
    8.5364  -18.8492   17.6923 C   0  0  0  0  0  0  0  0  0  0  0  0
    7.8323  -18.8409   16.3540 C   0  0  0  0  0  0  0  0  0  0  0  0
    6.8163  -19.9405   16.2065 C   0  0  0  0  0  0  0  0  0  0  0  0
    6.0635  -19.8493   14.8943 C   0  0  0  0  0  0  0  0  0  0  0  0
    5.1370  -20.9392   14.7874 N   0  0  0  0  0  0  0  0  0  0  0  0
   10.5409  -17.8574   18.8263 C   0  0  0  0  0  0  0  0  0  0  0  0
   10.1927  -18.0695   20.0161 O   0  0  0  0  0  0  0  0  0  0  0  0
   11.9161  -17.7653   18.5280 N   0  0  0  0  0  0  0  0  0  0  0  0
   13.0330  -17.9255   19.4081 C   0  0  1  0  0  0  0  0  0  0  0  0
   14.3813  -18.0737   18.7380 C   0  0  0  0  0  0  0  0  0  0  0  0
   15.4054  -18.4256   19.7819 C   0  0  0  0  0  0  0  0  0  0  0  0
   16.7756  -18.5087   19.1741 C   0  0  0  0  0  0  0  0  0  0  0  0
   17.0773  -17.6840   18.2914 O   0  0  0  0  0  0  0  0  0  0  0  0
   12.9919  -17.0664   20.5718 C   0  0  0  0  0  0  0  0  0  0  0  0
   12.5320  -15.8829   20.4204 O   0  0  0  0  0  0  0  0  0  0  0  0
   17.6365  -19.4777   19.6068 O   0  0  0  0  0  0  0  0  0  0  0  0
   11.6934  -15.2574   25.1538 N   0  0  0  0  0  0  0  0  0  0  0  0
   10.8839  -15.9174   24.1880 C   0  0  0  0  0  0  0  0  0  0  0  0
    9.6441  -15.8899   24.3764 O   0  0  0  0  0  0  0  0  0  0  0  0
   11.4695  -16.5963   23.0299 C   0  0  0  0  0  0  0  0  0  0  0  0
   12.9737  -16.6300   23.0174 C   0  0  2  0  0  0  0  0  0  0  0  0
   13.4128  -17.4060   21.8722 N   0  0  0  0  0  0  0  0  0  0  0  0
   13.5640  -17.0942   24.2749 C   0  0  0  0  0  0  0  0  0  0  0  0
   14.4686  -16.3120   24.9694 O   0  0  0  0  0  0  0  0  0  0  0  0
   13.2737  -18.2110   24.7663 O   0  0  0  0  0  0  0  0  0  0  0  0
  2  1  1  6
  3  2  1  0
  4  5  1  0
  4  3  1  0
  5  6  1  0
  7  6  1  0
  8  9  2  0
  8  2  1  0
 10  8  1  0
 11 10  1  0
 11 12  1  6
 12 13  1  0
 13 14  1  0
 14 18  1  0
 15 14  2  0
 16 17  2  0
 16 11  1  0
 19 20  1  0
 20 22  1  0
 21 20  2  0
 23 22  1  1
 23 24  1  0
 24 16  1  0
 25 23  1  0
 26 25  1  0
 27 25  2  0
M  END
$$$$
