KEN.pdb
     RDKit          3D

 27 26  0  0  1  0  0  0  0  0999 V2000
    7.6897  -16.9265   19.7686 N   0  0  0  0  0  0  0  0  0  0  0  0
    8.3705  -15.6758   19.9611 C   0  0  1  0  0  0  0  0  0  0  0  0
    7.7082  -14.7261   20.8926 C   0  0  0  0  0  0  0  0  0  0  0  0
    6.8211  -13.7856   20.1082 C   0  0  0  0  0  0  0  0  0  0  0  0
    7.4156  -13.3610   18.7931 C   0  0  0  0  0  0  0  0  0  0  0  0
    6.5499  -12.3431   18.0780 C   0  0  0  0  0  0  0  0  0  0  0  0
    7.0772  -12.0894   16.7683 N   0  0  0  0  0  0  0  0  0  0  0  0
    9.8073  -15.9666   20.3069 C   0  0  0  0  0  0  0  0  0  0  0  0
   10.0758  -16.8895   21.1180 O   0  0  0  0  0  0  0  0  0  0  0  0
   10.8687  -15.2296   19.7421 N   0  0  0  0  0  0  0  0  0  0  0  0
   12.2758  -15.3914   19.9468 C   0  0  1  0  0  0  0  0  0  0  0  0
   13.1701  -14.6359   18.9885 C   0  0  0  0  0  0  0  0  0  0  0  0
   14.6025  -14.9878   19.2826 C   0  0  0  0  0  0  0  0  0  0  0  0
   15.5164  -14.4027   18.2451 C   0  0  0  0  0  0  0  0  0  0  0  0
   16.2051  -15.1834   17.5620 O   0  0  0  0  0  0  0  0  0  0  0  0
   12.6732  -15.3710   21.3381 C   0  0  0  0  0  0  0  0  0  0  0  0
   12.0329  -14.5949   22.1273 O   0  0  0  0  0  0  0  0  0  0  0  0
   15.5603  -13.0461   18.0876 O   0  0  0  0  0  0  0  0  0  0  0  0
   11.5033  -16.8973   26.0450 N   0  0  0  0  0  0  0  0  0  0  0  0
   12.2752  -17.5673   25.0555 C   0  0  0  0  0  0  0  0  0  0  0  0
   12.8700  -18.6117   25.4146 O   0  0  0  0  0  0  0  0  0  0  0  0
   12.3708  -17.0624   23.6841 C   0  0  0  0  0  0  0  0  0  0  0  0
   13.6935  -16.4340   23.3382 C   0  0  2  0  0  0  0  0  0  0  0  0
   13.7078  -16.1294   21.9192 N   0  0  0  0  0  0  0  0  0  0  0  0
   14.8513  -17.2268   23.7581 C   0  0  0  0  0  0  0  0  0  0  0  0
   15.5985  -17.9398   22.8385 O   0  0  0  0  0  0  0  0  0  0  0  0
   15.2065  -17.2889   24.9593 O   0  0  0  0  0  0  0  0  0  0  0  0
  2  1  1  1
  3  2  1  0
  4  5  1  0
  4  3  1  0
  5  6  1  0
  7  6  1  0
  8  9  2  0
  8  2  1  0
 10  8  1  0
 11 10  1  0
 11 12  1  6
 12 13  1  0
 13 14  1  0
 14 18  1  0
 15 14  2  0
 16 17  2  0
 16 11  1  0
 19 20  1  0
 20 22  1  0
 21 20  2  0
 23 22  1  6
 23 24  1  0
 24 16  1  0
 25 23  1  0
 26 25  1  0
 27 25  2  0
M  END
$$$$
