KEN.pdb
     RDKit          3D

 27 26  0  0  1  0  0  0  0  0999 V2000
    8.1172  -16.2102   20.0893 N   0  0  0  0  0  0  0  0  0  0  0  0
    8.4349  -14.9544   20.7112 C   0  0  1  0  0  0  0  0  0  0  0  0
    7.7623  -13.7652   20.1267 C   0  0  0  0  0  0  0  0  0  0  0  0
    7.3847  -14.0536   18.6911 C   0  0  0  0  0  0  0  0  0  0  0  0
    8.1823  -13.2601   17.6924 C   0  0  0  0  0  0  0  0  0  0  0  0
    7.6845  -13.4620   16.2753 C   0  0  0  0  0  0  0  0  0  0  0  0
    8.4582  -12.6636   15.3688 N   0  0  0  0  0  0  0  0  0  0  0  0
    8.2361  -15.0977   22.1974 C   0  0  0  0  0  0  0  0  0  0  0  0
    8.4354  -14.1086   22.9483 O   0  0  0  0  0  0  0  0  0  0  0  0
    7.8284  -16.3174   22.7758 N   0  0  0  0  0  0  0  0  0  0  0  0
    7.5786  -16.6124   24.1537 C   0  0  1  0  0  0  0  0  0  0  0  0
    6.7128  -17.8242   24.4195 C   0  0  0  0  0  0  0  0  0  0  0  0
    7.6029  -19.0099   24.6723 C   0  0  0  0  0  0  0  0  0  0  0  0
    6.7861  -20.2260   25.0007 C   0  0  0  0  0  0  0  0  0  0  0  0
    6.5296  -20.4554   26.1975 O   0  0  0  0  0  0  0  0  0  0  0  0
    8.7375  -16.4591   25.0066 C   0  0  0  0  0  0  0  0  0  0  0  0
    9.8366  -16.9822   24.6149 O   0  0  0  0  0  0  0  0  0  0  0  0
    6.3562  -21.0319   23.9843 O   0  0  0  0  0  0  0  0  0  0  0  0
    7.6832  -14.1520   27.2650 N   0  0  0  0  0  0  0  0  0  0  0  0
    8.9146  -13.6871   27.8045 C   0  0  0  0  0  0  0  0  0  0  0  0
    8.9102  -12.5424   28.3175 O   0  0  0  0  0  0  0  0  0  0  0  0
   10.1287  -14.5051   27.7633 C   0  0  0  0  0  0  0  0  0  0  0  0
    9.9678  -15.8316   27.0715 C   0  0  2  0  0  0  0  0  0  0  0  0
    8.7783  -15.7830   26.2414 N   0  0  0  0  0  0  0  0  0  0  0  0
    9.9743  -16.9775   27.9838 C   0  0  0  0  0  0  0  0  0  0  0  0
    8.9194  -17.8711   28.0136 O   0  0  0  0  0  0  0  0  0  0  0  0
   10.9302  -17.1904   28.7673 O   0  0  0  0  0  0  0  0  0  0  0  0
  2  1  1  6
  3  2  1  0
  4  5  1  0
  4  3  1  0
  5  6  1  0
  7  6  1  0
  8  9  2  0
  8  2  1  0
 10  8  1  0
 11 10  1  0
 11 12  1  6
 12 13  1  0
 13 14  1  0
 14 18  1  0
 15 14  2  0
 16 17  2  0
 16 11  1  0
 19 20  1  0
 20 22  1  0
 21 20  2  0
 23 22  1  1
 23 24  1  0
 24 16  1  0
 25 23  1  0
 26 25  1  0
 27 25  2  0
M  END
$$$$
