KEN.pdb
     RDKit          3D

 27 26  0  0  1  0  0  0  0  0999 V2000
   10.4978  -14.7551   19.7250 N   0  0  0  0  0  0  0  0  0  0  0  0
    9.6000  -14.3512   20.7717 C   0  0  1  0  0  0  0  0  0  0  0  0
    8.1656  -14.2812   20.3898 C   0  0  0  0  0  0  0  0  0  0  0  0
    8.0328  -13.5898   19.0515 C   0  0  0  0  0  0  0  0  0  0  0  0
    6.9848  -14.2032   18.1635 C   0  0  0  0  0  0  0  0  0  0  0  0
    6.8006  -13.4243   16.8765 C   0  0  0  0  0  0  0  0  0  0  0  0
    7.8861  -13.7004   15.9804 N   0  0  0  0  0  0  0  0  0  0  0  0
    9.8673  -15.2072   21.9819 C   0  0  0  0  0  0  0  0  0  0  0  0
    9.0294  -15.2351   22.9195 O   0  0  0  0  0  0  0  0  0  0  0  0
   11.0377  -15.9856   22.0946 N   0  0  0  0  0  0  0  0  0  0  0  0
   11.4228  -16.8705   23.1513 C   0  0  1  0  0  0  0  0  0  0  0  0
   12.5852  -17.7899   22.8473 C   0  0  0  0  0  0  0  0  0  0  0  0
   12.7282  -18.7785   23.9718 C   0  0  0  0  0  0  0  0  0  0  0  0
   13.9056  -19.6804   23.7387 C   0  0  0  0  0  0  0  0  0  0  0  0
   14.8705  -19.6004   24.5217 O   0  0  0  0  0  0  0  0  0  0  0  0
   11.4237  -16.2557   24.4612 C   0  0  0  0  0  0  0  0  0  0  0  0
   11.8609  -15.0577   24.5548 O   0  0  0  0  0  0  0  0  0  0  0  0
   13.8778  -20.5501   22.6851 O   0  0  0  0  0  0  0  0  0  0  0  0
   10.0682  -14.3383   29.0021 N   0  0  0  0  0  0  0  0  0  0  0  0
    9.4038  -14.1880   27.7532 C   0  0  0  0  0  0  0  0  0  0  0  0
    8.5110  -13.3090   27.6905 O   0  0  0  0  0  0  0  0  0  0  0  0
    9.7454  -15.0190   26.5967 C   0  0  0  0  0  0  0  0  0  0  0  0
   10.8066  -16.0529   26.8591 C   0  0  2  0  0  0  0  0  0  0  0  0
   10.9861  -16.8510   25.6602 N   0  0  0  0  0  0  0  0  0  0  0  0
   10.5540  -16.8688   28.0490 C   0  0  0  0  0  0  0  0  0  0  0  0
   10.4654  -18.2462   27.9634 O   0  0  0  0  0  0  0  0  0  0  0  0
   10.4095  -16.3528   29.1829 O   0  0  0  0  0  0  0  0  0  0  0  0
  2  1  1  6
  3  2  1  0
  4  5  1  0
  4  3  1  0
  5  6  1  0
  7  6  1  0
  8  9  2  0
  8  2  1  0
 10  8  1  0
 11 10  1  0
 11 12  1  6
 12 13  1  0
 13 14  1  0
 14 18  1  0
 15 14  2  0
 16 17  2  0
 16 11  1  0
 19 20  1  0
 20 22  1  0
 21 20  2  0
 23 22  1  6
 23 24  1  0
 24 16  1  0
 25 23  1  0
 26 25  1  0
 27 25  2  0
M  END
$$$$
