KEN.pdb
     RDKit          3D

 27 26  0  0  1  0  0  0  0  0999 V2000
    9.5312  -15.7933   17.7440 N   0  0  0  0  0  0  0  0  0  0  0  0
   10.3440  -14.7684   18.3385 C   0  0  1  0  0  0  0  0  0  0  0  0
    9.7382  -14.0682   19.5008 C   0  0  0  0  0  0  0  0  0  0  0  0
    8.4334  -13.4293   19.0812 C   0  0  0  0  0  0  0  0  0  0  0  0
    7.7943  -12.6071   20.1669 C   0  0  0  0  0  0  0  0  0  0  0  0
    6.5563  -11.8816   19.6791 C   0  0  0  0  0  0  0  0  0  0  0  0
    5.9406  -11.1815   20.7693 N   0  0  0  0  0  0  0  0  0  0  0  0
   11.7065  -15.3465   18.6179 C   0  0  0  0  0  0  0  0  0  0  0  0
   11.8023  -16.5028   19.1033 O   0  0  0  0  0  0  0  0  0  0  0  0
   12.8871  -14.6243   18.3473 N   0  0  0  0  0  0  0  0  0  0  0  0
   14.2204  -14.8947   18.7914 C   0  0  1  0  0  0  0  0  0  0  0  0
   15.3137  -14.1043   18.1067 C   0  0  0  0  0  0  0  0  0  0  0  0
   16.6428  -14.5274   18.6696 C   0  0  0  0  0  0  0  0  0  0  0  0
   17.7108  -14.4593   17.6167 C   0  0  0  0  0  0  0  0  0  0  0  0
   18.7092  -15.1924   17.7449 O   0  0  0  0  0  0  0  0  0  0  0  0
   14.3436  -15.0403   20.2258 C   0  0  0  0  0  0  0  0  0  0  0  0
   14.3465  -13.9749   20.9329 O   0  0  0  0  0  0  0  0  0  0  0  0
   17.5519  -13.6030   16.5637 O   0  0  0  0  0  0  0  0  0  0  0  0
   11.8038  -15.5568   22.6239 N   0  0  0  0  0  0  0  0  0  0  0  0
   12.2011  -16.8751   22.9814 C   0  0  0  0  0  0  0  0  0  0  0  0
   11.2940  -17.6564   23.3558 O   0  0  0  0  0  0  0  0  0  0  0  0
   13.6012  -17.2997   22.9158 C   0  0  0  0  0  0  0  0  0  0  0  0
   14.5475  -16.2593   22.3808 C   0  0  2  0  0  0  0  0  0  0  0  0
   14.4625  -16.2531   20.9319 N   0  0  0  0  0  0  0  0  0  0  0  0
   15.9216  -16.4063   22.8661 C   0  0  0  0  0  0  0  0  0  0  0  0
   16.9662  -16.6372   21.9899 O   0  0  0  0  0  0  0  0  0  0  0  0
   16.2012  -16.3289   24.0862 O   0  0  0  0  0  0  0  0  0  0  0  0
  2  1  1  1
  3  2  1  0
  4  5  1  0
  4  3  1  0
  5  6  1  0
  7  6  1  0
  8  9  2  0
  8  2  1  0
 10  8  1  0
 11 10  1  0
 11 12  1  1
 12 13  1  0
 13 14  1  0
 14 18  1  0
 15 14  2  0
 16 17  2  0
 16 11  1  0
 19 20  1  0
 20 22  1  0
 21 20  2  0
 23 22  1  1
 23 24  1  0
 24 16  1  0
 25 23  1  0
 26 25  1  0
 27 25  2  0
M  END
$$$$
