KEN.pdb
     RDKit          3D

 27 26  0  0  1  0  0  0  0  0999 V2000
   11.5237  -20.9123   15.8238 N   0  0  0  0  0  0  0  0  0  0  0  0
   10.5009  -20.7655   16.8223 C   0  0  1  0  0  0  0  0  0  0  0  0
    9.1258  -21.1186   16.3835 C   0  0  0  0  0  0  0  0  0  0  0  0
    8.8531  -20.4997   15.0309 C   0  0  0  0  0  0  0  0  0  0  0  0
    7.5184  -20.8871   14.4548 C   0  0  0  0  0  0  0  0  0  0  0  0
    7.3166  -20.3313   13.0594 C   0  0  0  0  0  0  0  0  0  0  0  0
    6.0774  -20.8105   12.5186 N   0  0  0  0  0  0  0  0  0  0  0  0
   10.9472  -21.4861   18.0674 C   0  0  0  0  0  0  0  0  0  0  0  0
   10.2374  -21.4312   19.1043 O   0  0  0  0  0  0  0  0  0  0  0  0
   12.1460  -22.2278   18.1043 N   0  0  0  0  0  0  0  0  0  0  0  0
   12.6565  -23.0470   19.1609 C   0  0  1  0  0  0  0  0  0  0  0  0
   13.4621  -24.2519   18.7271 C   0  0  0  0  0  0  0  0  0  0  0  0
   13.4338  -24.3390   17.2259 C   0  0  0  0  0  0  0  0  0  0  0  0
   14.2612  -25.4961   16.7459 C   0  0  0  0  0  0  0  0  0  0  0  0
   14.8943  -25.3637   15.6818 O   0  0  0  0  0  0  0  0  0  0  0  0
   13.1840  -22.2989   20.2816 C   0  0  0  0  0  0  0  0  0  0  0  0
   13.8582  -21.2428   20.0262 O   0  0  0  0  0  0  0  0  0  0  0  0
   14.2906  -26.6441   17.4864 O   0  0  0  0  0  0  0  0  0  0  0  0
   10.1437  -19.2939   22.9718 N   0  0  0  0  0  0  0  0  0  0  0  0
   11.4667  -19.7889   22.8037 C   0  0  0  0  0  0  0  0  0  0  0  0
   12.3198  -18.9821   22.3622 O   0  0  0  0  0  0  0  0  0  0  0  0
   11.8161  -21.1732   23.1302 C   0  0  0  0  0  0  0  0  0  0  0  0
   13.1818  -21.6013   22.6659 C   0  0  2  0  0  0  0  0  0  0  0  0
   13.0284  -22.6203   21.6439 N   0  0  0  0  0  0  0  0  0  0  0  0
   14.0703  -22.0196   23.7527 C   0  0  0  0  0  0  0  0  0  0  0  0
   14.9967  -21.1462   24.2923 O   0  0  0  0  0  0  0  0  0  0  0  0
   14.0250  -23.1777   24.2318 O   0  0  0  0  0  0  0  0  0  0  0  0
  2  1  1  6
  3  2  1  0
  4  5  1  0
  4  3  1  0
  5  6  1  0
  7  6  1  0
  8  9  2  0
  8  2  1  0
 10  8  1  0
 11 10  1  0
 11 12  1  6
 12 13  1  0
 13 14  1  0
 14 18  1  0
 15 14  2  0
 16 17  2  0
 16 11  1  0
 19 20  1  0
 20 22  1  0
 21 20  2  0
 23 22  1  1
 23 24  1  0
 24 16  1  0
 25 23  1  0
 26 25  1  0
 27 25  2  0
M  END
$$$$
