KEN.pdb
     RDKit          3D

 27 26  0  0  1  0  0  0  0  0999 V2000
    7.5080  -13.2532   21.9659 N   0  0  0  0  0  0  0  0  0  0  0  0
    7.0190  -14.5751   21.6866 C   0  0  1  0  0  0  0  0  0  0  0  0
    6.7986  -14.8831   20.2497 C   0  0  0  0  0  0  0  0  0  0  0  0
    7.6407  -13.9578   19.4002 C   0  0  0  0  0  0  0  0  0  0  0  0
    7.3347  -14.0523   17.9303 C   0  0  0  0  0  0  0  0  0  0  0  0
    8.2408  -13.1647   17.1008 C   0  0  0  0  0  0  0  0  0  0  0  0
    7.8598  -13.2346   15.7197 N   0  0  0  0  0  0  0  0  0  0  0  0
    7.9046  -15.5673   22.3936 C   0  0  0  0  0  0  0  0  0  0  0  0
    7.5104  -16.7518   22.5470 O   0  0  0  0  0  0  0  0  0  0  0  0
    9.1734  -15.2047   22.8909 N   0  0  0  0  0  0  0  0  0  0  0  0
   10.1887  -16.0471   23.4455 C   0  0  1  0  0  0  0  0  0  0  0  0
   11.6146  -15.6004   23.2084 C   0  0  0  0  0  0  0  0  0  0  0  0
   12.0276  -16.0130   21.8223 C   0  0  0  0  0  0  0  0  0  0  0  0
   13.4496  -15.6146   21.5518 C   0  0  0  0  0  0  0  0  0  0  0  0
   13.6679  -14.4588   21.1431 O   0  0  0  0  0  0  0  0  0  0  0  0
    9.8871  -16.5335   24.7746 C   0  0  0  0  0  0  0  0  0  0  0  0
    9.7856  -15.6716   25.7137 O   0  0  0  0  0  0  0  0  0  0  0  0
   14.4461  -16.5258   21.7615 O   0  0  0  0  0  0  0  0  0  0  0  0
    7.5579  -21.0594   28.0565 N   0  0  0  0  0  0  0  0  0  0  0  0
    7.9292  -19.6961   27.8914 C   0  0  0  0  0  0  0  0  0  0  0  0
    7.9935  -18.9983   28.9318 O   0  0  0  0  0  0  0  0  0  0  0  0
    8.2222  -19.1344   26.5710 C   0  0  0  0  0  0  0  0  0  0  0  0
    9.4271  -18.2343   26.5259 C   0  0  2  0  0  0  0  0  0  0  0  0
    9.6915  -17.8784   25.1440 N   0  0  0  0  0  0  0  0  0  0  0  0
   10.6026  -18.7875   27.2023 C   0  0  0  0  0  0  0  0  0  0  0  0
   10.6391  -18.9147   28.5788 O   0  0  0  0  0  0  0  0  0  0  0  0
   11.6138  -19.1643   26.5631 O   0  0  0  0  0  0  0  0  0  0  0  0
  2  1  1  6
  3  2  1  0
  4  5  1  0
  4  3  1  0
  5  6  1  0
  7  6  1  0
  8  9  2  0
  8  2  1  0
 10  8  1  0
 11 10  1  0
 11 12  1  1
 12 13  1  0
 13 14  1  0
 14 18  1  0
 15 14  2  0
 16 17  2  0
 16 11  1  0
 19 20  1  0
 20 22  1  0
 21 20  2  0
 23 22  1  6
 23 24  1  0
 24 16  1  0
 25 23  1  0
 26 25  1  0
 27 25  2  0
M  END
$$$$
