KEN.pdb
     RDKit          3D

 27 26  0  0  1  0  0  0  0  0999 V2000
    7.7296  -15.6959   20.1384 N   0  0  0  0  0  0  0  0  0  0  0  0
    8.7116  -14.6470   20.1498 C   0  0  1  0  0  0  0  0  0  0  0  0
    8.4340  -13.5036   19.2421 C   0  0  0  0  0  0  0  0  0  0  0  0
    7.9659  -14.0251   17.9020 C   0  0  0  0  0  0  0  0  0  0  0  0
    8.9304  -13.7452   16.7819 C   0  0  0  0  0  0  0  0  0  0  0  0
    8.3819  -14.1752   15.4362 C   0  0  0  0  0  0  0  0  0  0  0  0
    9.3117  -13.8325   14.3990 N   0  0  0  0  0  0  0  0  0  0  0  0
    8.9579  -14.2438   21.5800 C   0  0  0  0  0  0  0  0  0  0  0  0
    9.8099  -13.3547   21.8360 O   0  0  0  0  0  0  0  0  0  0  0  0
    8.2546  -14.8374   22.6484 N   0  0  0  0  0  0  0  0  0  0  0  0
    8.4095  -14.6126   24.0532 C   0  0  1  0  0  0  0  0  0  0  0  0
    7.2712  -13.8818   24.7308 C   0  0  0  0  0  0  0  0  0  0  0  0
    7.6843  -13.5375   26.1355 C   0  0  0  0  0  0  0  0  0  0  0  0
    6.6208  -12.7264   26.8174 C   0  0  0  0  0  0  0  0  0  0  0  0
    5.4396  -12.8851   26.4566 O   0  0  0  0  0  0  0  0  0  0  0  0
    8.9574  -15.7426   24.7720 C   0  0  0  0  0  0  0  0  0  0  0  0
    8.3569  -16.8660   24.6595 O   0  0  0  0  0  0  0  0  0  0  0  0
    6.9824  -11.8501   27.8016 O   0  0  0  0  0  0  0  0  0  0  0  0
   13.0287  -15.9088   23.9409 N   0  0  0  0  0  0  0  0  0  0  0  0
   12.3739  -17.0442   24.4938 C   0  0  0  0  0  0  0  0  0  0  0  0
   12.1002  -17.9790   23.7033 O   0  0  0  0  0  0  0  0  0  0  0  0
   12.0355  -17.1184   25.9168 C   0  0  0  0  0  0  0  0  0  0  0  0
   10.5718  -16.9513   26.2227 C   0  0  2  0  0  0  0  0  0  0  0  0
   10.1007  -15.7308   25.5943 N   0  0  0  0  0  0  0  0  0  0  0  0
   10.2574  -17.0091   27.6522 C   0  0  0  0  0  0  0  0  0  0  0  0
   10.6309  -18.0963   28.4208 O   0  0  0  0  0  0  0  0  0  0  0  0
    9.6417  -16.0814   28.2293 O   0  0  0  0  0  0  0  0  0  0  0  0
  2  1  1  1
  3  2  1  0
  4  5  1  0
  4  3  1  0
  5  6  1  0
  7  6  1  0
  8  9  2  0
  8  2  1  0
 10  8  1  0
 11 10  1  0
 11 12  1  1
 12 13  1  0
 13 14  1  0
 14 18  1  0
 15 14  2  0
 16 17  2  0
 16 11  1  0
 19 20  1  0
 20 22  1  0
 21 20  2  0
 23 22  1  1
 23 24  1  0
 24 16  1  0
 25 23  1  0
 26 25  1  0
 27 25  2  0
M  END
$$$$
