DDM.pdb
     RDKit          3D

 25 24  0  0  1  0  0  0  0  0999 V2000
    8.1406  -12.7054   19.5627 N   0  0  0  0  0  0  0  0  0  0  0  0
    7.3256  -13.8818   19.6916 C   0  0  1  0  0  0  0  0  0  0  0  0
    7.2042  -14.6057   18.3649 C   0  0  0  0  0  0  0  0  0  0  0  0
    8.5064  -14.6724   17.6792 C   0  0  0  0  0  0  0  0  0  0  0  0
    9.5031  -14.1170   18.1789 O   0  0  0  0  0  0  0  0  0  0  0  0
    7.7509  -14.7548   20.7872 C   0  0  0  0  0  0  0  0  0  0  0  0
    7.1258  -14.7680   21.8779 O   0  0  0  0  0  0  0  0  0  0  0  0
    8.6171  -15.3503   16.4856 O   0  0  0  0  0  0  0  0  0  0  0  0
    8.8805  -15.6346   20.6998 N   0  0  0  0  0  0  0  0  0  0  0  0
    9.3552  -16.4569   21.7659 C   0  0  1  0  0  0  0  0  0  0  0  0
   10.6408  -17.1398   21.3141 C   0  0  0  0  0  0  0  0  0  0  0  0
   11.1824  -18.0180   22.3727 C   0  0  0  0  0  0  0  0  0  0  0  0
   10.4639  -18.7791   23.0639 O   0  0  0  0  0  0  0  0  0  0  0  0
    9.5775  -15.6531   22.9894 C   0  0  0  0  0  0  0  0  0  0  0  0
    9.9459  -14.4495   22.9649 O   0  0  0  0  0  0  0  0  0  0  0  0
   12.5549  -17.9817   22.5950 O   0  0  0  0  0  0  0  0  0  0  0  0
    6.2408  -11.2303   27.3860 C   0  0  0  0  0  0  0  0  0  0  0  0
    6.3328  -12.5147   26.1312 S   0  0  0  0  0  0  0  0  0  0  0  0
    7.6202  -13.7277   26.5340 C   0  0  0  0  0  0  0  0  0  0  0  0
    7.9194  -14.5335   25.2962 C   0  0  0  0  0  0  0  0  0  0  0  0
    9.1305  -15.4211   25.4687 C   0  0  2  0  0  0  0  0  0  0  0  0
    9.3815  -16.2121   24.2864 N   0  0  0  0  0  0  0  0  0  0  0  0
    9.1093  -16.1955   26.7039 C   0  0  0  0  0  0  0  0  0  0  0  0
    8.6813  -17.3619   26.7053 O   0  0  0  0  0  0  0  0  0  0  0  0
    9.5602  -15.6504   27.8801 O   0  0  0  0  0  0  0  0  0  0  0  0
  2  3  1  0
  2  1  1  6
  3  4  1  0
  4  8  1  0
  5  4  2  0
  6  7  2  0
  6  2  1  0
  9  6  1  0
 10 14  1  0
 10  9  1  0
 10 11  1  6
 12 11  1  0
 12 16  1  0
 13 12  2  0
 14 22  1  0
 15 14  2  0
 18 19  1  0
 18 17  1  0
 21 20  1  6
 20 19  1  0
 22 21  1  0
 23 21  1  0
 23 25  1  0
 24 23  2  0
M  END
$$$$
