DDM.pdb
     RDKit          3D

 25 24  0  0  1  0  0  0  0  0999 V2000
    8.4015  -15.3319   19.2658 N   0  0  0  0  0  0  0  0  0  0  0  0
    7.6101  -16.1342   20.1572 C   0  0  1  0  0  0  0  0  0  0  0  0
    6.9073  -17.2477   19.4055 C   0  0  0  0  0  0  0  0  0  0  0  0
    7.8659  -18.0337   18.6096 C   0  0  0  0  0  0  0  0  0  0  0  0
    8.5332  -17.4817   17.7143 O   0  0  0  0  0  0  0  0  0  0  0  0
    8.3630  -16.6098   21.3194 C   0  0  0  0  0  0  0  0  0  0  0  0
    7.8096  -17.3201   22.1966 O   0  0  0  0  0  0  0  0  0  0  0  0
    8.0211  -19.3792   18.8590 O   0  0  0  0  0  0  0  0  0  0  0  0
    9.7485  -16.3085   21.5369 N   0  0  0  0  0  0  0  0  0  0  0  0
   10.4941  -16.6983   22.6903 C   0  0  1  0  0  0  0  0  0  0  0  0
   11.9756  -16.4827   22.4038 C   0  0  0  0  0  0  0  0  0  0  0  0
   12.4737  -17.4466   21.3998 C   0  0  0  0  0  0  0  0  0  0  0  0
   12.1817  -18.6663   21.4191 O   0  0  0  0  0  0  0  0  0  0  0  0
   10.0613  -15.9294   23.8793 C   0  0  0  0  0  0  0  0  0  0  0  0
    9.6589  -14.7378   23.8195 O   0  0  0  0  0  0  0  0  0  0  0  0
   13.3030  -16.9558   20.3971 O   0  0  0  0  0  0  0  0  0  0  0  0
    6.8788  -11.1502   26.3484 C   0  0  0  0  0  0  0  0  0  0  0  0
    6.8158  -12.9383   26.5250 S   0  0  0  0  0  0  0  0  0  0  0  0
    8.3412  -13.7073   25.9144 C   0  0  0  0  0  0  0  0  0  0  0  0
    8.2262  -15.1994   26.0911 C   0  0  0  0  0  0  0  0  0  0  0  0
    9.5640  -15.8499   26.3586 C   0  0  2  0  0  0  0  0  0  0  0  0
   10.0777  -16.5105   25.1812 N   0  0  0  0  0  0  0  0  0  0  0  0
    9.5735  -16.6833   27.5549 C   0  0  0  0  0  0  0  0  0  0  0  0
    9.4872  -16.1650   28.6807 O   0  0  0  0  0  0  0  0  0  0  0  0
    9.6775  -18.0484   27.4567 O   0  0  0  0  0  0  0  0  0  0  0  0
  2  3  1  0
  2  1  1  6
  3  4  1  0
  4  8  1  0
  5  4  2  0
  6  7  2  0
  6  2  1  0
  9  6  1  0
 10 14  1  0
 10  9  1  0
 10 11  1  6
 12 11  1  0
 12 16  1  0
 13 12  2  0
 14 22  1  0
 15 14  2  0
 18 19  1  0
 18 17  1  0
 21 20  1  6
 20 19  1  0
 22 21  1  0
 23 21  1  0
 23 25  1  0
 24 23  2  0
M  END
$$$$
