DDM.pdb
     RDKit          3D

 25 24  0  0  1  0  0  0  0  0999 V2000
   11.3915  -16.8717   20.7965 N   0  0  0  0  0  0  0  0  0  0  0  0
   10.0628  -16.4060   21.0833 C   0  0  1  0  0  0  0  0  0  0  0  0
    9.0663  -16.9601   20.0839 C   0  0  0  0  0  0  0  0  0  0  0  0
    9.5914  -16.8708   18.7104 C   0  0  0  0  0  0  0  0  0  0  0  0
   10.5609  -17.5734   18.3668 O   0  0  0  0  0  0  0  0  0  0  0  0
    9.6670  -16.6286   22.4752 C   0  0  0  0  0  0  0  0  0  0  0  0
    8.5599  -16.2135   22.9025 O   0  0  0  0  0  0  0  0  0  0  0  0
    9.0070  -16.0089   17.8092 O   0  0  0  0  0  0  0  0  0  0  0  0
   10.4899  -17.3169   23.4273 N   0  0  0  0  0  0  0  0  0  0  0  0
   10.1302  -17.5605   24.7873 C   0  0  1  0  0  0  0  0  0  0  0  0
   10.8076  -18.8475   25.2434 C   0  0  0  0  0  0  0  0  0  0  0  0
   10.4941  -19.1470   26.6566 C   0  0  0  0  0  0  0  0  0  0  0  0
    9.3264  -19.1390   27.1146 O   0  0  0  0  0  0  0  0  0  0  0  0
   10.5184  -16.4180   25.6453 C   0  0  0  0  0  0  0  0  0  0  0  0
   11.6899  -15.9591   25.6921 O   0  0  0  0  0  0  0  0  0  0  0  0
   11.5589  -19.4486   27.4989 O   0  0  0  0  0  0  0  0  0  0  0  0
    5.6033  -12.7751   25.8771 C   0  0  0  0  0  0  0  0  0  0  0  0
    6.9971  -12.0026   26.7096 S   0  0  0  0  0  0  0  0  0  0  0  0
    8.5218  -12.9484   26.4411 C   0  0  0  0  0  0  0  0  0  0  0  0
    8.7926  -13.7746   27.6720 C   0  0  0  0  0  0  0  0  0  0  0  0
    9.9158  -14.7641   27.4625 C   0  0  2  0  0  0  0  0  0  0  0  0
    9.5657  -15.7642   26.4807 N   0  0  0  0  0  0  0  0  0  0  0  0
   10.4409  -15.3154   28.7059 C   0  0  0  0  0  0  0  0  0  0  0  0
   10.8496  -14.5599   29.6035 O   0  0  0  0  0  0  0  0  0  0  0  0
   10.4917  -16.6727   28.9038 O   0  0  0  0  0  0  0  0  0  0  0  0
  2  3  1  0
  2  1  1  6
  3  4  1  0
  4  8  1  0
  5  4  2  0
  6  7  2  0
  6  2  1  0
  9  6  1  0
 10 14  1  0
 10  9  1  0
 10 11  1  1
 12 11  1  0
 12 16  1  0
 13 12  2  0
 14 22  1  0
 15 14  2  0
 18 19  1  0
 18 17  1  0
 21 20  1  1
 20 19  1  0
 22 21  1  0
 23 21  1  0
 23 25  1  0
 24 23  2  0
M  END
$$$$
