DDM.pdb
     RDKit          3D

 25 24  0  0  1  0  0  0  0  0999 V2000
    9.5456  -15.9451   18.4328 N   0  0  0  0  0  0  0  0  0  0  0  0
    8.3313  -16.5052   18.9584 C   0  0  1  0  0  0  0  0  0  0  0  0
    7.7679  -17.5553   18.0210 C   0  0  0  0  0  0  0  0  0  0  0  0
    8.8224  -18.1082   17.1535 C   0  0  0  0  0  0  0  0  0  0  0  0
    9.9013  -18.4869   17.6477 O   0  0  0  0  0  0  0  0  0  0  0  0
    8.4697  -16.9784   20.3370 C   0  0  0  0  0  0  0  0  0  0  0  0
    7.4548  -17.2412   21.0309 O   0  0  0  0  0  0  0  0  0  0  0  0
    8.6108  -18.2049   15.7961 O   0  0  0  0  0  0  0  0  0  0  0  0
    9.7375  -17.1714   20.9796 N   0  0  0  0  0  0  0  0  0  0  0  0
    9.9079  -17.6281   22.3214 C   0  0  1  0  0  0  0  0  0  0  0  0
   11.1870  -18.4541   22.3922 C   0  0  0  0  0  0  0  0  0  0  0  0
   10.9078  -19.8393   22.8262 C   0  0  0  0  0  0  0  0  0  0  0  0
   10.0081  -20.1295   23.6506 O   0  0  0  0  0  0  0  0  0  0  0  0
    9.9554  -16.4859   23.2624 C   0  0  0  0  0  0  0  0  0  0  0  0
   10.8655  -15.6162   23.2438 O   0  0  0  0  0  0  0  0  0  0  0  0
   11.6917  -20.8512   22.2822 O   0  0  0  0  0  0  0  0  0  0  0  0
    6.2397  -10.7966   26.9155 C   0  0  0  0  0  0  0  0  0  0  0  0
    6.2674  -12.2153   25.8113 S   0  0  0  0  0  0  0  0  0  0  0  0
    7.7030  -13.2728   26.1456 C   0  0  0  0  0  0  0  0  0  0  0  0
    7.7035  -14.4039   25.1497 C   0  0  0  0  0  0  0  0  0  0  0  0
    8.9650  -15.2330   25.2245 C   0  0  2  0  0  0  0  0  0  0  0  0
    8.9517  -16.3076   24.2593 N   0  0  0  0  0  0  0  0  0  0  0  0
    9.2980  -15.6594   26.5784 C   0  0  0  0  0  0  0  0  0  0  0  0
    9.1815  -16.8519   26.9068 O   0  0  0  0  0  0  0  0  0  0  0  0
    9.7440  -14.7535   27.5082 O   0  0  0  0  0  0  0  0  0  0  0  0
  2  3  1  0
  2  1  1  6
  3  4  1  0
  4  8  1  0
  5  4  2  0
  6  7  2  0
  6  2  1  0
  9  6  1  0
 10 14  1  0
 10  9  1  0
 10 11  1  6
 12 11  1  0
 12 16  1  0
 13 12  2  0
 14 22  1  0
 15 14  2  0
 18 19  1  0
 18 17  1  0
 21 20  1  1
 20 19  1  0
 22 21  1  0
 23 21  1  0
 23 25  1  0
 24 23  2  0
M  END
$$$$
