DDM.pdb
     RDKit          3D

 25 24  0  0  1  0  0  0  0  0999 V2000
    9.4789  -15.7732   19.2392 N   0  0  0  0  0  0  0  0  0  0  0  0
    8.3804  -16.3809   19.9384 C   0  0  1  0  0  0  0  0  0  0  0  0
    7.5659  -17.2599   19.0095 C   0  0  0  0  0  0  0  0  0  0  0  0
    7.6522  -16.7805   17.6191 C   0  0  0  0  0  0  0  0  0  0  0  0
    8.4277  -15.8505   17.3274 O   0  0  0  0  0  0  0  0  0  0  0  0
    8.7922  -17.0654   21.1653 C   0  0  0  0  0  0  0  0  0  0  0  0
    7.9541  -17.6876   21.8660 O   0  0  0  0  0  0  0  0  0  0  0  0
    6.8733  -17.3640   16.6448 O   0  0  0  0  0  0  0  0  0  0  0  0
   10.1439  -17.0762   21.6451 N   0  0  0  0  0  0  0  0  0  0  0  0
   10.5870  -17.7684   22.8125 C   0  0  1  0  0  0  0  0  0  0  0  0
   12.0894  -17.9979   22.6974 C   0  0  0  0  0  0  0  0  0  0  0  0
   12.4078  -18.9192   21.5861 C   0  0  0  0  0  0  0  0  0  0  0  0
   11.7129  -19.9271   21.3129 O   0  0  0  0  0  0  0  0  0  0  0  0
   10.2545  -17.0019   24.0349 C   0  0  0  0  0  0  0  0  0  0  0  0
   10.5358  -17.4009   25.1954 O   0  0  0  0  0  0  0  0  0  0  0  0
   13.5347  -18.6355   20.8218 O   0  0  0  0  0  0  0  0  0  0  0  0
    6.2380  -10.9904   26.9908 C   0  0  0  0  0  0  0  0  0  0  0  0
    6.7858  -11.8933   25.5356 S   0  0  0  0  0  0  0  0  0  0  0  0
    7.1634  -13.6199   25.9443 C   0  0  0  0  0  0  0  0  0  0  0  0
    7.8043  -14.2646   24.7424 C   0  0  0  0  0  0  0  0  0  0  0  0
    9.0353  -15.0620   25.1076 C   0  0  2  0  0  0  0  0  0  0  0  0
    9.5847  -15.7454   23.9598 N   0  0  0  0  0  0  0  0  0  0  0  0
    8.8449  -15.9202   26.2708 C   0  0  0  0  0  0  0  0  0  0  0  0
    8.8012  -15.4298   27.4114 O   0  0  0  0  0  0  0  0  0  0  0  0
    8.7113  -17.2784   26.1246 O   0  0  0  0  0  0  0  0  0  0  0  0
  2  3  1  0
  2  1  1  6
  3  4  1  0
  4  8  1  0
  5  4  2  0
  6  7  2  0
  6  2  1  0
  9  6  1  0
 10 14  1  0
 10  9  1  0
 10 11  1  6
 12 11  1  0
 12 16  1  0
 13 12  2  0
 14 22  1  0
 15 14  2  0
 18 19  1  0
 18 17  1  0
 21 20  1  6
 20 19  1  0
 22 21  1  0
 23 21  1  0
 23 25  1  0
 24 23  2  0
M  END
$$$$
