DDM.pdb
     RDKit          3D

 25 24  0  0  1  0  0  0  0  0999 V2000
    9.9195  -16.4038   18.1452 N   0  0  0  0  0  0  0  0  0  0  0  0
    8.6938  -16.0138   18.7856 C   0  0  1  0  0  0  0  0  0  0  0  0
    7.4932  -16.4315   17.9591 C   0  0  0  0  0  0  0  0  0  0  0  0
    7.6925  -16.1046   16.5366 C   0  0  0  0  0  0  0  0  0  0  0  0
    8.3819  -16.8511   15.8161 O   0  0  0  0  0  0  0  0  0  0  0  0
    8.6131  -16.4511   20.1805 C   0  0  0  0  0  0  0  0  0  0  0  0
    7.6490  -16.1027   20.9083 O   0  0  0  0  0  0  0  0  0  0  0  0
    7.1143  -14.9723   16.0073 O   0  0  0  0  0  0  0  0  0  0  0  0
    9.6003  -17.2856   20.8023 N   0  0  0  0  0  0  0  0  0  0  0  0
    9.5473  -17.7380   22.1553 C   0  0  1  0  0  0  0  0  0  0  0  0
   10.6175  -18.8056   22.3504 C   0  0  0  0  0  0  0  0  0  0  0  0
   10.4440  -19.5101   23.6383 C   0  0  0  0  0  0  0  0  0  0  0  0
   11.2248  -20.4069   24.0378 O   0  0  0  0  0  0  0  0  0  0  0  0
    9.7398  -16.6092   23.0939 C   0  0  0  0  0  0  0  0  0  0  0  0
    9.9552  -15.4280   22.7150 O   0  0  0  0  0  0  0  0  0  0  0  0
    9.3580  -19.1453   24.4268 O   0  0  0  0  0  0  0  0  0  0  0  0
    6.5559  -11.3640   26.8313 C   0  0  0  0  0  0  0  0  0  0  0  0
    6.8607  -12.6678   25.6313 S   0  0  0  0  0  0  0  0  0  0  0  0
    8.2347  -13.7291   26.1575 C   0  0  0  0  0  0  0  0  0  0  0  0
    8.4529  -14.7833   25.1030 C   0  0  0  0  0  0  0  0  0  0  0  0
    9.5793  -15.7261   25.4593 C   0  0  2  0  0  0  0  0  0  0  0  0
    9.6900  -16.8051   24.5053 N   0  0  0  0  0  0  0  0  0  0  0  0
    9.5475  -16.1670   26.8487 C   0  0  0  0  0  0  0  0  0  0  0  0
    8.9890  -17.2335   27.1553 O   0  0  0  0  0  0  0  0  0  0  0  0
   10.1319  -15.4137   27.8360 O   0  0  0  0  0  0  0  0  0  0  0  0
  2  3  1  0
  2  1  1  6
  3  4  1  0
  4  8  1  0
  5  4  2  0
  6  7  2  0
  6  2  1  0
  9  6  1  0
 10 14  1  0
 10  9  1  0
 10 11  1  6
 12 11  1  0
 12 16  1  0
 13 12  2  0
 14 22  1  0
 15 14  2  0
 18 19  1  0
 18 17  1  0
 21 20  1  6
 20 19  1  0
 22 21  1  0
 23 21  1  0
 23 25  1  0
 24 23  2  0
M  END
$$$$
