FHY.pdb
     RDKit          3D

 34 36  0  0  1  0  0  0  0  0999 V2000
   22.4745  -10.8451  -21.9604 N   0  0  0  0  0  0  0  0  0  0  0  0
   21.7733  -10.7509  -20.7038 C   0  0  1  0  0  0  0  0  0  0  0  0
   20.4409  -10.0506  -20.9895 C   0  0  0  0  0  0  0  0  0  0  0  0
   20.6248   -8.6680  -21.4406 C   0  0  0  0  0  0  0  0  0  0  0  0
   20.5304   -8.3613  -22.7883 C   0  0  0  0  0  0  0  0  0  0  0  0
   20.7092   -7.0546  -23.1690 C   0  0  0  0  0  0  0  0  0  0  0  0
   20.9757   -6.0570  -22.2605 C   0  0  0  0  0  0  0  0  0  0  0  0
   21.0649   -6.3859  -20.9266 C   0  0  0  0  0  0  0  0  0  0  0  0
   20.8913   -7.6782  -20.5200 C   0  0  0  0  0  0  0  0  0  0  0  0
   21.4299  -12.0779  -20.1436 C   0  0  0  0  0  0  0  0  0  0  0  0
   22.0023  -13.0858  -20.6200 O   0  0  0  0  0  0  0  0  0  0  0  0
   20.4870  -12.2968  -19.0920 N   0  0  0  0  0  0  0  0  0  0  0  0
   20.2937  -13.5877  -18.4823 C   0  0  1  0  0  0  0  0  0  0  0  0
   21.5695  -14.0639  -17.8889 C   0  0  0  0  0  0  0  0  0  0  0  0
   21.5316  -15.3804  -17.2419 C   0  0  0  0  0  0  0  0  0  0  0  0
   20.5403  -16.2989  -17.0593 C   0  0  0  0  0  0  0  0  0  0  0  0
   21.1034  -17.3640  -16.4078 N   0  0  0  0  0  0  0  0  0  0  0  0
   22.3860  -17.1358  -16.1879 C   0  0  0  0  0  0  0  0  0  0  0  0
   22.6631  -15.9362  -16.6879 N   0  0  0  0  0  0  0  0  0  0  0  0
   19.2221  -13.6058  -17.4622 C   0  0  0  0  0  0  0  0  0  0  0  0
   18.9834  -12.6836  -16.6451 O   0  0  0  0  0  0  0  0  0  0  0  0
   14.1588  -14.7911  -22.0967 O   0  0  0  0  0  0  0  0  0  0  0  0
   14.6662  -14.5310  -20.8333 C   0  0  0  0  0  0  0  0  0  0  0  0
   15.7665  -13.7054  -20.7316 C   0  0  0  0  0  0  0  0  0  0  0  0
   16.3100  -13.4173  -19.4730 C   0  0  0  0  0  0  0  0  0  0  0  0
   15.7330  -13.9672  -18.3504 C   0  0  0  0  0  0  0  0  0  0  0  0
   16.2609  -13.7114  -17.0173 C   0  0  0  0  0  0  0  0  0  0  0  0
   17.2241  -14.7535  -16.4999 C   0  0  2  0  0  0  0  0  0  0  0  0
   18.3923  -14.7567  -17.3978 N   0  0  0  0  0  0  0  0  0  0  0  0
   16.5735  -16.0749  -16.5857 C   0  0  0  0  0  0  0  0  0  0  0  0
   15.5298  -16.2804  -15.9161 O   0  0  0  0  0  0  0  0  0  0  0  0
   14.6261  -14.7957  -18.4708 C   0  0  0  0  0  0  0  0  0  0  0  0
   14.0764  -15.0893  -19.7195 C   0  0  0  0  0  0  0  0  0  0  0  0
   17.0649  -17.1065  -17.3786 O   0  0  0  0  0  0  0  0  0  0  0  0
  2  1  1  6
  3  2  1  0
  4  5  2  0
  4  3  1  0
  6  5  1  0
  7  6  2  0
  8  7  1  0
  8  9  2  0
  9  4  1  0
 10 11  2  0
 10  2  1  0
 12 10  1  0
 13 14  1  1
 13 12  1  0
 14 15  1  0
 15 16  2  0
 15 19  1  0
 16 17  1  0
 17 18  1  0
 19 18  2  0
 20 13  1  0
 21 20  2  0
 23 22  1  0
 23 24  2  0
 25 24  1  0
 26 25  2  0
 27 26  1  0
 28 27  1  6
 28 29  1  0
 29 20  1  0
 30 28  1  0
 30 34  1  0
 31 30  2  0
 32 33  2  0
 32 26  1  0
 33 23  1  0
M  END
$$$$
