FHY.pdb
     RDKit          3D

 34 36  0  0  1  0  0  0  0  0999 V2000
   28.8084  -21.1303   -9.1278 N   0  0  0  0  0  0  0  0  0  0  0  0
   27.3930  -21.0317   -8.8699 C   0  0  1  0  0  0  0  0  0  0  0  0
   27.2003  -19.8751   -7.8838 C   0  0  0  0  0  0  0  0  0  0  0  0
   27.9637  -20.0656   -6.6469 C   0  0  0  0  0  0  0  0  0  0  0  0
   27.3000  -20.2219   -5.4410 C   0  0  0  0  0  0  0  0  0  0  0  0
   28.0519  -20.3978   -4.3061 C   0  0  0  0  0  0  0  0  0  0  0  0
   29.4267  -20.4225   -4.3350 C   0  0  0  0  0  0  0  0  0  0  0  0
   30.0642  -20.2651   -5.5451 C   0  0  0  0  0  0  0  0  0  0  0  0
   29.3406  -20.0884   -6.6900 C   0  0  0  0  0  0  0  0  0  0  0  0
   26.6181  -20.6751  -10.0802 C   0  0  0  0  0  0  0  0  0  0  0  0
   27.2059  -20.0522  -10.9951 O   0  0  0  0  0  0  0  0  0  0  0  0
   25.2391  -20.9907  -10.2846 N   0  0  0  0  0  0  0  0  0  0  0  0
   24.5987  -20.8652  -11.5690 C   0  0  1  0  0  0  0  0  0  0  0  0
   25.2877  -21.7257  -12.5648 C   0  0  0  0  0  0  0  0  0  0  0  0
   26.4307  -21.1236  -13.2607 C   0  0  0  0  0  0  0  0  0  0  0  0
   27.0498  -19.9129  -13.1578 C   0  0  0  0  0  0  0  0  0  0  0  0
   28.0906  -19.9242  -14.0480 N   0  0  0  0  0  0  0  0  0  0  0  0
   28.1323  -21.0816  -14.6838 C   0  0  0  0  0  0  0  0  0  0  0  0
   27.1319  -21.8220  -14.2182 N   0  0  0  0  0  0  0  0  0  0  0  0
   23.1529  -21.1782  -11.5423 C   0  0  0  0  0  0  0  0  0  0  0  0
   22.6390  -22.1849  -10.9967 O   0  0  0  0  0  0  0  0  0  0  0  0
   14.5142  -19.6627  -12.6470 O   0  0  0  0  0  0  0  0  0  0  0  0
   15.8908  -19.5716  -12.5133 C   0  0  0  0  0  0  0  0  0  0  0  0
   16.4491  -19.8991  -11.2953 C   0  0  0  0  0  0  0  0  0  0  0  0
   17.8366  -19.8204  -11.1187 C   0  0  0  0  0  0  0  0  0  0  0  0
   18.6256  -19.4143  -12.1712 C   0  0  0  0  0  0  0  0  0  0  0  0
   20.0722  -19.3039  -12.0431 C   0  0  0  0  0  0  0  0  0  0  0  0
   20.8334  -20.5909  -12.2565 C   0  0  2  0  0  0  0  0  0  0  0  0
   22.2695  -20.2697  -12.1837 N   0  0  0  0  0  0  0  0  0  0  0  0
   20.5406  -21.0873  -13.6147 C   0  0  0  0  0  0  0  0  0  0  0  0
   19.7115  -22.0219  -13.7520 O   0  0  0  0  0  0  0  0  0  0  0  0
   18.0474  -19.0886  -13.3902 C   0  0  0  0  0  0  0  0  0  0  0  0
   16.6665  -19.1636  -13.5772 C   0  0  0  0  0  0  0  0  0  0  0  0
   21.1426  -20.5639  -14.7541 O   0  0  0  0  0  0  0  0  0  0  0  0
  2  1  1  6
  3  2  1  0
  4  5  2  0
  4  3  1  0
  6  5  1  0
  7  6  2  0
  8  7  1  0
  8  9  2  0
  9  4  1  0
 10 11  2  0
 10  2  1  0
 12 10  1  0
 13 14  1  6
 13 12  1  0
 14 15  1  0
 15 16  2  0
 15 19  1  0
 16 17  1  0
 17 18  1  0
 19 18  2  0
 20 13  1  0
 21 20  2  0
 23 22  1  0
 23 24  2  0
 25 24  1  0
 26 25  2  0
 27 26  1  0
 28 27  1  6
 28 29  1  0
 29 20  1  0
 30 28  1  0
 30 34  1  0
 31 30  2  0
 32 33  2  0
 32 26  1  0
 33 23  1  0
M  END
$$$$
