FHY.pdb
     RDKit          3D

 34 36  0  0  1  0  0  0  0  0999 V2000
   29.1255  -35.0661   -6.8104 N   0  0  0  0  0  0  0  0  0  0  0  0
   28.2670  -34.7126   -5.7070 C   0  0  1  0  0  0  0  0  0  0  0  0
   26.8246  -34.9014   -6.1877 C   0  0  0  0  0  0  0  0  0  0  0  0
   26.3334  -33.7438   -6.9410 C   0  0  0  0  0  0  0  0  0  0  0  0
   25.4103  -32.8851   -6.3667 C   0  0  0  0  0  0  0  0  0  0  0  0
   24.9758  -31.8131   -7.1059 C   0  0  0  0  0  0  0  0  0  0  0  0
   25.4266  -31.5731   -8.3829 C   0  0  0  0  0  0  0  0  0  0  0  0
   26.3439  -32.4402   -8.9326 C   0  0  0  0  0  0  0  0  0  0  0  0
   26.7933  -33.5149   -8.2195 C   0  0  0  0  0  0  0  0  0  0  0  0
   28.4355  -35.6139   -4.5443 C   0  0  0  0  0  0  0  0  0  0  0  0
   28.4052  -36.8503   -4.7466 O   0  0  0  0  0  0  0  0  0  0  0  0
   28.6316  -35.1758   -3.1980 N   0  0  0  0  0  0  0  0  0  0  0  0
   28.7458  -36.0944   -2.0941 C   0  0  1  0  0  0  0  0  0  0  0  0
   29.3960  -35.4216   -0.9404 C   0  0  0  0  0  0  0  0  0  0  0  0
   28.5485  -34.5150   -0.1573 C   0  0  0  0  0  0  0  0  0  0  0  0
   27.2735  -34.0598   -0.3211 C   0  0  0  0  0  0  0  0  0  0  0  0
   27.0006  -33.2537    0.7520 N   0  0  0  0  0  0  0  0  0  0  0  0
   28.0469  -33.1990    1.5570 C   0  0  0  0  0  0  0  0  0  0  0  0
   28.9956  -33.9590    1.0204 N   0  0  0  0  0  0  0  0  0  0  0  0
   27.4534  -36.6812   -1.6766 C   0  0  0  0  0  0  0  0  0  0  0  0
   26.3347  -36.3953   -2.1685 O   0  0  0  0  0  0  0  0  0  0  0  0
   20.9093  -41.8147   -0.1041 O   0  0  0  0  0  0  0  0  0  0  0  0
   22.0814  -41.1339   -0.3944 C   0  0  0  0  0  0  0  0  0  0  0  0
   21.9853  -39.8246   -0.8173 C   0  0  0  0  0  0  0  0  0  0  0  0
   23.1460  -39.1013   -1.1208 C   0  0  0  0  0  0  0  0  0  0  0  0
   24.3722  -39.7139   -0.9914 C   0  0  0  0  0  0  0  0  0  0  0  0
   25.6116  -39.0150   -1.3023 C   0  0  0  0  0  0  0  0  0  0  0  0
   26.2021  -38.2214   -0.1609 C   0  0  2  0  0  0  0  0  0  0  0  0
   27.4733  -37.6474   -0.6358 N   0  0  0  0  0  0  0  0  0  0  0  0
   26.5008  -39.1483    0.9475 C   0  0  0  0  0  0  0  0  0  0  0  0
   25.5459  -39.7136    1.5378 O   0  0  0  0  0  0  0  0  0  0  0  0
   24.4507  -41.0321   -0.5643 C   0  0  0  0  0  0  0  0  0  0  0  0
   23.3010  -41.7618   -0.2591 C   0  0  0  0  0  0  0  0  0  0  0  0
   27.7969  -39.4262    1.3687 O   0  0  0  0  0  0  0  0  0  0  0  0
  2  1  1  6
  3  2  1  0
  4  5  2  0
  4  3  1  0
  6  5  1  0
  7  6  2  0
  8  7  1  0
  8  9  2  0
  9  4  1  0
 10 11  2  0
 10  2  1  0
 12 10  1  0
 13 14  1  1
 13 12  1  0
 14 15  1  0
 15 16  2  0
 15 19  1  0
 16 17  1  0
 17 18  1  0
 19 18  2  0
 20 13  1  0
 21 20  2  0
 23 22  1  0
 23 24  2  0
 25 24  1  0
 26 25  2  0
 27 26  1  0
 28 27  1  6
 28 29  1  0
 29 20  1  0
 30 28  1  0
 30 34  1  0
 31 30  2  0
 32 33  2  0
 32 26  1  0
 33 23  1  0
M  END
$$$$
