FHY.pdb
     RDKit          3D

 34 36  0  0  1  0  0  0  0  0999 V2000
   31.8874  -10.5271  -17.5867 N   0  0  0  0  0  0  0  0  0  0  0  0
   30.6799   -9.7413  -17.6509 C   0  0  1  0  0  0  0  0  0  0  0  0
   31.0668   -8.3785  -18.2343 C   0  0  0  0  0  0  0  0  0  0  0  0
   31.8677   -7.5811  -17.3008 C   0  0  0  0  0  0  0  0  0  0  0  0
   33.2264   -7.8207  -17.1748 C   0  0  0  0  0  0  0  0  0  0  0  0
   33.9401   -7.0518  -16.2896 C   0  0  0  0  0  0  0  0  0  0  0  0
   33.3500   -6.0644  -15.5358 C   0  0  0  0  0  0  0  0  0  0  0  0
   31.9984   -5.8445  -15.6781 C   0  0  0  0  0  0  0  0  0  0  0  0
   31.2640   -6.5949  -16.5516 C   0  0  0  0  0  0  0  0  0  0  0  0
   29.6763  -10.3158  -18.5757 C   0  0  0  0  0  0  0  0  0  0  0  0
   30.0370  -11.2453  -19.3349 O   0  0  0  0  0  0  0  0  0  0  0  0
   28.3162   -9.8862  -18.6679 N   0  0  0  0  0  0  0  0  0  0  0  0
   27.3484  -10.5542  -19.5001 C   0  0  1  0  0  0  0  0  0  0  0  0
   27.2342  -11.9801  -19.0997 C   0  0  0  0  0  0  0  0  0  0  0  0
   28.3001  -12.8723  -19.5697 C   0  0  0  0  0  0  0  0  0  0  0  0
   29.4825  -12.6512  -20.2123 C   0  0  0  0  0  0  0  0  0  0  0  0
   30.0824  -13.8726  -20.3679 N   0  0  0  0  0  0  0  0  0  0  0  0
   29.3221  -14.8215  -19.8509 C   0  0  0  0  0  0  0  0  0  0  0  0
   28.2362  -14.2321  -19.3618 N   0  0  0  0  0  0  0  0  0  0  0  0
   26.0141   -9.9150  -19.4858 C   0  0  0  0  0  0  0  0  0  0  0  0
   25.4651   -9.4056  -18.4787 O   0  0  0  0  0  0  0  0  0  0  0  0
   18.8016   -6.2759  -23.0663 O   0  0  0  0  0  0  0  0  0  0  0  0
   20.0033   -6.9333  -22.8537 C   0  0  0  0  0  0  0  0  0  0  0  0
   19.9974   -8.3126  -22.8451 C   0  0  0  0  0  0  0  0  0  0  0  0
   21.1908   -9.0152  -22.6337 C   0  0  0  0  0  0  0  0  0  0  0  0
   22.3580   -8.3124  -22.4362 C   0  0  0  0  0  0  0  0  0  0  0  0
   23.6264   -8.9888  -22.2016 C   0  0  0  0  0  0  0  0  0  0  0  0
   23.9864   -9.1868  -20.7481 C   0  0  2  0  0  0  0  0  0  0  0  0
   25.2910   -9.8703  -20.7074 N   0  0  0  0  0  0  0  0  0  0  0  0
   22.9813  -10.0757  -20.1345 C   0  0  0  0  0  0  0  0  0  0  0  0
   23.1513  -11.3192  -20.2019 O   0  0  0  0  0  0  0  0  0  0  0  0
   22.3460   -6.9246  -22.4481 C   0  0  0  0  0  0  0  0  0  0  0  0
   21.1631   -6.2146  -22.6580 C   0  0  0  0  0  0  0  0  0  0  0  0
   21.8506   -9.5968  -19.4812 O   0  0  0  0  0  0  0  0  0  0  0  0
  2  1  1  6
  3  2  1  0
  4  5  2  0
  4  3  1  0
  6  5  1  0
  7  6  2  0
  8  7  1  0
  8  9  2  0
  9  4  1  0
 10 11  2  0
 10  2  1  0
 12 10  1  0
 13 14  1  1
 13 12  1  0
 14 15  1  0
 15 16  2  0
 15 19  1  0
 16 17  1  0
 17 18  1  0
 19 18  2  0
 20 13  1  0
 21 20  2  0
 23 22  1  0
 23 24  2  0
 25 24  1  0
 26 25  2  0
 27 26  1  0
 28 27  1  6
 28 29  1  0
 29 20  1  0
 30 28  1  0
 30 34  1  0
 31 30  2  0
 32 33  2  0
 32 26  1  0
 33 23  1  0
M  END
$$$$
