FHY.pdb
     RDKit          3D

 34 36  0  0  1  0  0  0  0  0999 V2000
   35.7461  -17.6041   11.3434 N   0  0  0  0  0  0  0  0  0  0  0  0
   34.9834  -18.4928   10.5020 C   0  0  1  0  0  0  0  0  0  0  0  0
   35.0896  -19.8906   11.1201 C   0  0  0  0  0  0  0  0  0  0  0  0
   36.4290  -20.4664   10.9663 C   0  0  0  0  0  0  0  0  0  0  0  0
   37.3872  -20.2614   11.9456 C   0  0  0  0  0  0  0  0  0  0  0  0
   38.6288  -20.8177   11.7632 C   0  0  0  0  0  0  0  0  0  0  0  0
   38.9413  -21.5622   10.6499 C   0  0  0  0  0  0  0  0  0  0  0  0
   37.9728  -21.7524    9.6901 C   0  0  0  0  0  0  0  0  0  0  0  0
   36.7289  -21.2103    9.8460 C   0  0  0  0  0  0  0  0  0  0  0  0
   33.5409  -18.1591   10.4827 C   0  0  0  0  0  0  0  0  0  0  0  0
   33.0079  -17.7822   11.5525 O   0  0  0  0  0  0  0  0  0  0  0  0
   32.7044  -18.2352    9.3263 N   0  0  0  0  0  0  0  0  0  0  0  0
   31.3157  -17.8524    9.3491 C   0  0  1  0  0  0  0  0  0  0  0  0
   30.9222  -17.2947    8.0298 C   0  0  0  0  0  0  0  0  0  0  0  0
   31.4663  -15.9733    7.6966 C   0  0  0  0  0  0  0  0  0  0  0  0
   32.3037  -15.1198    8.3524 C   0  0  0  0  0  0  0  0  0  0  0  0
   32.4859  -14.0374    7.5332 N   0  0  0  0  0  0  0  0  0  0  0  0
   31.8009  -14.1939    6.4143 C   0  0  0  0  0  0  0  0  0  0  0  0
   31.1761  -15.3638    6.4965 N   0  0  0  0  0  0  0  0  0  0  0  0
   30.4041  -18.9552    9.7259 C   0  0  0  0  0  0  0  0  0  0  0  0
   30.4993  -20.1421    9.3291 O   0  0  0  0  0  0  0  0  0  0  0  0
   30.8799  -17.9422   16.7662 O   0  0  0  0  0  0  0  0  0  0  0  0
   30.5081  -18.5843   15.5954 C   0  0  0  0  0  0  0  0  0  0  0  0
   29.3015  -19.2523   15.5750 C   0  0  0  0  0  0  0  0  0  0  0  0
   28.8887  -19.9142   14.4114 C   0  0  0  0  0  0  0  0  0  0  0  0
   29.7002  -19.8870   13.2995 C   0  0  0  0  0  0  0  0  0  0  0  0
   29.3278  -20.5653   12.0656 C   0  0  0  0  0  0  0  0  0  0  0  0
   28.4862  -19.7474   11.1149 C   0  0  2  0  0  0  0  0  0  0  0  0
   29.3329  -18.6531   10.6082 N   0  0  0  0  0  0  0  0  0  0  0  0
   27.3692  -19.1522   11.8732 C   0  0  0  0  0  0  0  0  0  0  0  0
   27.3341  -17.9044   12.0198 O   0  0  0  0  0  0  0  0  0  0  0  0
   30.9111  -19.2099   13.3373 C   0  0  0  0  0  0  0  0  0  0  0  0
   31.3320  -18.5471   14.4910 C   0  0  0  0  0  0  0  0  0  0  0  0
   26.3490  -19.9134   12.4337 O   0  0  0  0  0  0  0  0  0  0  0  0
  2  1  1  1
  3  2  1  0
  4  5  2  0
  4  3  1  0
  6  5  1  0
  7  6  2  0
  8  7  1  0
  8  9  2  0
  9  4  1  0
 10 11  2  0
 10  2  1  0
 12 10  1  0
 13 14  1  6
 13 12  1  0
 14 15  1  0
 15 16  2  0
 15 19  1  0
 16 17  1  0
 17 18  1  0
 19 18  2  0
 20 13  1  0
 21 20  2  0
 23 22  1  0
 23 24  2  0
 25 24  1  0
 26 25  2  0
 27 26  1  0
 28 27  1  1
 28 29  1  0
 29 20  1  0
 30 28  1  0
 30 34  1  0
 31 30  2  0
 32 33  2  0
 32 26  1  0
 33 23  1  0
M  END
$$$$
