FHY.pdb
     RDKit          3D

 34 36  0  0  1  0  0  0  0  0999 V2000
   25.5242   -6.2999  -18.3935 N   0  0  0  0  0  0  0  0  0  0  0  0
   24.8121   -7.2801  -17.6114 C   0  0  1  0  0  0  0  0  0  0  0  0
   25.7997   -7.8240  -16.5740 C   0  0  0  0  0  0  0  0  0  0  0  0
   26.7712   -8.7502  -17.1631 C   0  0  0  0  0  0  0  0  0  0  0  0
   27.9415   -8.2629  -17.7220 C   0  0  0  0  0  0  0  0  0  0  0  0
   28.8247   -9.1636  -18.2631 C   0  0  0  0  0  0  0  0  0  0  0  0
   28.5815  -10.5173  -18.2648 C   0  0  0  0  0  0  0  0  0  0  0  0
   27.4117  -10.9781  -17.7036 C   0  0  0  0  0  0  0  0  0  0  0  0
   26.5152  -10.1040  -17.1581 C   0  0  0  0  0  0  0  0  0  0  0  0
   23.6914   -6.6902  -16.8442 C   0  0  0  0  0  0  0  0  0  0  0  0
   23.3746   -5.5012  -17.0819 O   0  0  0  0  0  0  0  0  0  0  0  0
   22.9381   -7.3808  -15.8449 N   0  0  0  0  0  0  0  0  0  0  0  0
   21.7371   -6.8348  -15.2661 C   0  0  1  0  0  0  0  0  0  0  0  0
   20.8042   -6.4103  -16.3413 C   0  0  0  0  0  0  0  0  0  0  0  0
   19.5448   -5.7986  -15.9022 C   0  0  0  0  0  0  0  0  0  0  0  0
   19.0384   -5.4917  -14.6737 C   0  0  0  0  0  0  0  0  0  0  0  0
   17.8207   -4.9012  -14.8843 N   0  0  0  0  0  0  0  0  0  0  0  0
   17.5656   -4.8351  -16.1789 C   0  0  0  0  0  0  0  0  0  0  0  0
   18.6017   -5.3752  -16.8117 N   0  0  0  0  0  0  0  0  0  0  0  0
   21.0531   -7.7621  -14.3381 C   0  0  0  0  0  0  0  0  0  0  0  0
   20.6969   -8.9333  -14.6150 O   0  0  0  0  0  0  0  0  0  0  0  0
   16.5804   -3.3728  -10.1841 O   0  0  0  0  0  0  0  0  0  0  0  0
   17.5069   -4.3948  -10.3196 C   0  0  0  0  0  0  0  0  0  0  0  0
   17.3371   -5.5319   -9.5577 C   0  0  0  0  0  0  0  0  0  0  0  0
   18.2512   -6.5880   -9.6649 C   0  0  0  0  0  0  0  0  0  0  0  0
   19.3118   -6.4725  -10.5351 C   0  0  0  0  0  0  0  0  0  0  0  0
   20.2989   -7.5334  -10.6810 C   0  0  0  0  0  0  0  0  0  0  0  0
   20.2808   -8.2452  -12.0131 C   0  0  2  0  0  0  0  0  0  0  0  0
   20.7747   -7.2957  -13.0258 N   0  0  0  0  0  0  0  0  0  0  0  0
   18.8833   -8.5846  -12.3426 C   0  0  0  0  0  0  0  0  0  0  0  0
   18.3482   -9.5678  -11.7711 O   0  0  0  0  0  0  0  0  0  0  0  0
   19.4676   -5.3213  -11.2945 C   0  0  0  0  0  0  0  0  0  0  0  0
   18.5629   -4.2633  -11.1957 C   0  0  0  0  0  0  0  0  0  0  0  0
   18.1285   -7.8612  -13.2600 O   0  0  0  0  0  0  0  0  0  0  0  0
  2  1  1  1
  3  2  1  0
  4  5  2  0
  4  3  1  0
  6  5  1  0
  7  6  2  0
  8  7  1  0
  8  9  2  0
  9  4  1  0
 10 11  2  0
 10  2  1  0
 12 10  1  0
 13 14  1  6
 13 12  1  0
 14 15  1  0
 15 16  2  0
 15 19  1  0
 16 17  1  0
 17 18  1  0
 19 18  2  0
 20 13  1  0
 21 20  2  0
 23 22  1  0
 23 24  2  0
 25 24  1  0
 26 25  2  0
 27 26  1  0
 28 27  1  1
 28 29  1  0
 29 20  1  0
 30 28  1  0
 30 34  1  0
 31 30  2  0
 32 33  2  0
 32 26  1  0
 33 23  1  0
M  END
$$$$
