FHY.pdb
     RDKit          3D

 34 36  0  0  1  0  0  0  0  0999 V2000
   12.6462  -11.5208  -11.0961 N   0  0  0  0  0  0  0  0  0  0  0  0
   12.9500  -10.1639  -10.7140 C   0  0  1  0  0  0  0  0  0  0  0  0
   12.8889  -10.1083   -9.1842 C   0  0  0  0  0  0  0  0  0  0  0  0
   11.6109   -9.5802   -8.6975 C   0  0  0  0  0  0  0  0  0  0  0  0
   11.3867   -8.2131   -8.6848 C   0  0  0  0  0  0  0  0  0  0  0  0
   10.1768   -7.7597   -8.2213 C   0  0  0  0  0  0  0  0  0  0  0  0
    9.1961   -8.6148   -7.7757 C   0  0  0  0  0  0  0  0  0  0  0  0
    9.4419   -9.9693   -7.7977 C   0  0  0  0  0  0  0  0  0  0  0  0
   10.6370  -10.4479   -8.2539 C   0  0  0  0  0  0  0  0  0  0  0  0
   14.3259   -9.7629  -11.0865 C   0  0  0  0  0  0  0  0  0  0  0  0
   15.2538  -10.5810  -10.8860 O   0  0  0  0  0  0  0  0  0  0  0  0
   14.6775   -8.5028  -11.6621 N   0  0  0  0  0  0  0  0  0  0  0  0
   16.0443   -8.1169  -11.9039 C   0  0  1  0  0  0  0  0  0  0  0  0
   16.2610   -7.9043  -13.3580 C   0  0  0  0  0  0  0  0  0  0  0  0
   16.3040   -9.1122  -14.1901 C   0  0  0  0  0  0  0  0  0  0  0  0
   16.2486  -10.4437  -13.9005 C   0  0  0  0  0  0  0  0  0  0  0  0
   16.3026  -11.1107  -15.0955 N   0  0  0  0  0  0  0  0  0  0  0  0
   16.3872  -10.2491  -16.0935 C   0  0  0  0  0  0  0  0  0  0  0  0
   16.3892   -9.0312  -15.5621 N   0  0  0  0  0  0  0  0  0  0  0  0
   16.4627   -6.9159  -11.1479 C   0  0  0  0  0  0  0  0  0  0  0  0
   15.7036   -5.9811  -10.7940 O   0  0  0  0  0  0  0  0  0  0  0  0
   22.9252   -7.1123  -14.2222 O   0  0  0  0  0  0  0  0  0  0  0  0
   22.1402   -6.8008  -13.1230 C   0  0  0  0  0  0  0  0  0  0  0  0
   21.8913   -5.4703  -12.8578 C   0  0  0  0  0  0  0  0  0  0  0  0
   21.1026   -5.1129  -11.7565 C   0  0  0  0  0  0  0  0  0  0  0  0
   20.5856   -6.1028  -10.9512 C   0  0  0  0  0  0  0  0  0  0  0  0
   19.7677   -5.7907   -9.7872 C   0  0  0  0  0  0  0  0  0  0  0  0
   18.2956   -5.6063  -10.0707 C   0  0  2  0  0  0  0  0  0  0  0  0
   17.8327   -6.8060  -10.7899 N   0  0  0  0  0  0  0  0  0  0  0  0
   18.1338   -4.4428  -10.9635 C   0  0  0  0  0  0  0  0  0  0  0  0
   18.3584   -3.2936  -10.5068 O   0  0  0  0  0  0  0  0  0  0  0  0
   20.8459   -7.4366  -11.2327 C   0  0  0  0  0  0  0  0  0  0  0  0
   21.6300   -7.8039  -12.3271 C   0  0  0  0  0  0  0  0  0  0  0  0
   17.7437   -4.5621  -12.2932 O   0  0  0  0  0  0  0  0  0  0  0  0
  2  1  1  1
  3  2  1  0
  4  5  2  0
  4  3  1  0
  6  5  1  0
  7  6  2  0
  8  7  1  0
  8  9  2  0
  9  4  1  0
 10 11  2  0
 10  2  1  0
 12 10  1  0
 13 14  1  6
 13 12  1  0
 14 15  1  0
 15 16  2  0
 15 19  1  0
 16 17  1  0
 17 18  1  0
 19 18  2  0
 20 13  1  0
 21 20  2  0
 23 22  1  0
 23 24  2  0
 25 24  1  0
 26 25  2  0
 27 26  1  0
 28 27  1  6
 28 29  1  0
 29 20  1  0
 30 28  1  0
 30 34  1  0
 31 30  2  0
 32 33  2  0
 32 26  1  0
 33 23  1  0
M  END
$$$$
