FHY.pdb
     RDKit          3D

 34 36  0  0  1  0  0  0  0  0999 V2000
   43.7986  -10.5381   -5.9717 N   0  0  0  0  0  0  0  0  0  0  0  0
   43.2326  -10.3208   -7.2801 C   0  0  1  0  0  0  0  0  0  0  0  0
   41.9990  -11.2232   -7.3863 C   0  0  0  0  0  0  0  0  0  0  0  0
   42.2525  -12.4187   -8.1958 C   0  0  0  0  0  0  0  0  0  0  0  0
   42.6990  -13.5824   -7.5910 C   0  0  0  0  0  0  0  0  0  0  0  0
   42.9243  -14.6794   -8.3849 C   0  0  0  0  0  0  0  0  0  0  0  0
   42.7214  -14.6534   -9.7449 C   0  0  0  0  0  0  0  0  0  0  0  0
   42.2775  -13.4857  -10.3235 C   0  0  0  0  0  0  0  0  0  0  0  0
   42.0452  -12.3791   -9.5574 C   0  0  0  0  0  0  0  0  0  0  0  0
   42.7466   -8.9346   -7.4662 C   0  0  0  0  0  0  0  0  0  0  0  0
   42.3106   -8.3223   -6.4634 O   0  0  0  0  0  0  0  0  0  0  0  0
   42.7375   -8.2371   -8.7137 N   0  0  0  0  0  0  0  0  0  0  0  0
   42.2428   -6.8903   -8.8437 C   0  0  1  0  0  0  0  0  0  0  0  0
   43.1036   -6.1226   -9.7797 C   0  0  0  0  0  0  0  0  0  0  0  0
   42.8509   -4.6791   -9.8564 C   0  0  0  0  0  0  0  0  0  0  0  0
   41.9717   -3.8536   -9.2198 C   0  0  0  0  0  0  0  0  0  0  0  0
   42.2182   -2.5860   -9.6762 N   0  0  0  0  0  0  0  0  0  0  0  0
   43.2031   -2.6036  -10.5567 C   0  0  0  0  0  0  0  0  0  0  0  0
   43.5992   -3.8662  -10.6781 N   0  0  0  0  0  0  0  0  0  0  0  0
   40.8304   -6.8182   -9.2787 C   0  0  0  0  0  0  0  0  0  0  0  0
   40.3292   -7.4720  -10.2256 O   0  0  0  0  0  0  0  0  0  0  0  0
   39.0822  -11.4034   -5.5799 O   0  0  0  0  0  0  0  0  0  0  0  0
   38.7725  -10.1431   -6.0668 C   0  0  0  0  0  0  0  0  0  0  0  0
   37.9394  -10.0559   -7.1626 C   0  0  0  0  0  0  0  0  0  0  0  0
   37.6018   -8.8009   -7.6857 C   0  0  0  0  0  0  0  0  0  0  0  0
   38.1111   -7.6673   -7.0933 C   0  0  0  0  0  0  0  0  0  0  0  0
   37.8031   -6.3369   -7.5996 C   0  0  0  0  0  0  0  0  0  0  0  0
   38.5237   -5.9534   -8.8704 C   0  0  2  0  0  0  0  0  0  0  0  0
   39.9664   -5.9407   -8.5711 N   0  0  0  0  0  0  0  0  0  0  0  0
   38.1185   -4.5844   -9.2427 C   0  0  0  0  0  0  0  0  0  0  0  0
   38.9784   -3.6683   -9.2090 O   0  0  0  0  0  0  0  0  0  0  0  0
   38.9479   -7.7732   -5.9911 C   0  0  0  0  0  0  0  0  0  0  0  0
   39.2906   -9.0181   -5.4617 C   0  0  0  0  0  0  0  0  0  0  0  0
   36.8228   -4.2619   -9.6320 O   0  0  0  0  0  0  0  0  0  0  0  0
  2  1  1  1
  3  2  1  0
  4  5  2  0
  4  3  1  0
  6  5  1  0
  7  6  2  0
  8  7  1  0
  8  9  2  0
  9  4  1  0
 10 11  2  0
 10  2  1  0
 12 10  1  0
 13 14  1  6
 13 12  1  0
 14 15  1  0
 15 16  2  0
 15 19  1  0
 16 17  1  0
 17 18  1  0
 19 18  2  0
 20 13  1  0
 21 20  2  0
 23 22  1  0
 23 24  2  0
 25 24  1  0
 26 25  2  0
 27 26  1  0
 28 27  1  1
 28 29  1  0
 29 20  1  0
 30 28  1  0
 30 34  1  0
 31 30  2  0
 32 33  2  0
 32 26  1  0
 33 23  1  0
M  END
$$$$
