FHY.pdb
     RDKit          3D

 34 36  0  0  1  0  0  0  0  0999 V2000
   20.5782  -14.8456  -20.7027 N   0  0  0  0  0  0  0  0  0  0  0  0
   20.4002  -14.9153  -19.2734 C   0  0  1  0  0  0  0  0  0  0  0  0
   19.3923  -13.8245  -18.8971 C   0  0  0  0  0  0  0  0  0  0  0  0
   19.8908  -12.4790  -19.1977 C   0  0  0  0  0  0  0  0  0  0  0  0
   20.9739  -11.9702  -18.4998 C   0  0  0  0  0  0  0  0  0  0  0  0
   21.4094  -10.7063  -18.8118 C   0  0  0  0  0  0  0  0  0  0  0  0
   20.8071   -9.9436  -19.7850 C   0  0  0  0  0  0  0  0  0  0  0  0
   19.7323  -10.4705  -20.4652 C   0  0  0  0  0  0  0  0  0  0  0  0
   19.2781  -11.7255  -20.1751 C   0  0  0  0  0  0  0  0  0  0  0  0
   19.8021  -16.1976  -18.8368 C   0  0  0  0  0  0  0  0  0  0  0  0
   18.7961  -16.6198  -19.4534 O   0  0  0  0  0  0  0  0  0  0  0  0
   20.2902  -16.9960  -17.7564 N   0  0  0  0  0  0  0  0  0  0  0  0
   19.6685  -18.2363  -17.3684 C   0  0  1  0  0  0  0  0  0  0  0  0
   20.7095  -19.2438  -17.0402 C   0  0  0  0  0  0  0  0  0  0  0  0
   21.4600  -19.7933  -18.1751 C   0  0  0  0  0  0  0  0  0  0  0  0
   21.3714  -19.6125  -19.5239 C   0  0  0  0  0  0  0  0  0  0  0  0
   22.3630  -20.3689  -20.0901 N   0  0  0  0  0  0  0  0  0  0  0  0
   23.0472  -20.9978  -19.1510 C   0  0  0  0  0  0  0  0  0  0  0  0
   22.5127  -20.6597  -17.9823 N   0  0  0  0  0  0  0  0  0  0  0  0
   18.7239  -18.0964  -16.2382 C   0  0  0  0  0  0  0  0  0  0  0  0
   18.7064  -17.1436  -15.4216 O   0  0  0  0  0  0  0  0  0  0  0  0
   12.0925  -19.1788  -19.3878 O   0  0  0  0  0  0  0  0  0  0  0  0
   13.0044  -18.8490  -18.3973 C   0  0  0  0  0  0  0  0  0  0  0  0
   14.2040  -18.2854  -18.7793 C   0  0  0  0  0  0  0  0  0  0  0  0
   15.1530  -17.9375  -17.8093 C   0  0  0  0  0  0  0  0  0  0  0  0
   14.8707  -18.1660  -16.4813 C   0  0  0  0  0  0  0  0  0  0  0  0
   15.8228  -17.8344  -15.4302 C   0  0  0  0  0  0  0  0  0  0  0  0
   16.7312  -18.9655  -15.0098 C   0  0  2  0  0  0  0  0  0  0  0  0
   17.7555  -19.1196  -16.0577 N   0  0  0  0  0  0  0  0  0  0  0  0
   15.9367  -20.2076  -14.9560 C   0  0  0  0  0  0  0  0  0  0  0  0
   16.1314  -21.0890  -15.8307 O   0  0  0  0  0  0  0  0  0  0  0  0
   13.6586  -18.7339  -16.1144 C   0  0  0  0  0  0  0  0  0  0  0  0
   12.7061  -19.0841  -17.0723 C   0  0  0  0  0  0  0  0  0  0  0  0
   14.9795  -20.4478  -13.9759 O   0  0  0  0  0  0  0  0  0  0  0  0
  2  1  1  6
  3  2  1  0
  4  5  2  0
  4  3  1  0
  6  5  1  0
  7  6  2  0
  8  7  1  0
  8  9  2  0
  9  4  1  0
 10 11  2  0
 10  2  1  0
 12 10  1  0
 13 14  1  1
 13 12  1  0
 14 15  1  0
 15 16  2  0
 15 19  1  0
 16 17  1  0
 17 18  1  0
 19 18  2  0
 20 13  1  0
 21 20  2  0
 23 22  1  0
 23 24  2  0
 25 24  1  0
 26 25  2  0
 27 26  1  0
 28 27  1  6
 28 29  1  0
 29 20  1  0
 30 28  1  0
 30 34  1  0
 31 30  2  0
 32 33  2  0
 32 26  1  0
 33 23  1  0
M  END
$$$$
