WEE.pdb
     RDKit          3D

 33 34  0  0  1  0  0  0  0  0999 V2000
   27.3646  -22.3978  -10.9756 N   0  0  0  0  0  0  0  0  0  0  0  0
   26.4859  -21.3734  -10.5472 C   0  0  1  0  0  0  0  0  0  0  0  0
   27.0881  -20.0486  -10.2333 C   0  0  0  0  0  0  0  0  0  0  0  0
   28.1216  -20.1616   -9.1999 C   0  0  0  0  0  0  0  0  0  0  0  0
   29.4061  -20.6123   -9.4346 C   0  0  0  0  0  0  0  0  0  0  0  0
   30.0477  -20.5463   -8.2623 N   0  0  0  0  0  0  0  0  0  0  0  0
   29.2262  -20.0755   -7.3022 C   0  0  0  0  0  0  0  0  0  0  0  0
   29.3901  -19.8262   -5.9527 C   0  0  0  0  0  0  0  0  0  0  0  0
   28.3459  -19.3410   -5.2110 C   0  0  0  0  0  0  0  0  0  0  0  0
   27.1079  -19.0829   -5.7589 C   0  0  0  0  0  0  0  0  0  0  0  0
   26.9364  -19.3303   -7.1109 C   0  0  0  0  0  0  0  0  0  0  0  0
   27.9887  -19.8187   -7.8601 C   0  0  0  0  0  0  0  0  0  0  0  0
   25.3001  -21.1580  -11.4217 C   0  0  0  0  0  0  0  0  0  0  0  0
   25.5435  -21.0451  -12.6385 O   0  0  0  0  0  0  0  0  0  0  0  0
   23.9752  -21.0743  -10.9982 N   0  0  0  0  0  0  0  0  0  0  0  0
   22.8351  -21.1588  -11.8231 C   0  0  1  0  0  0  0  0  0  0  0  0
   21.6227  -21.8628  -11.3485 C   0  0  0  0  0  0  0  0  0  0  0  0
   20.5649  -21.9808  -12.3910 C   0  0  0  0  0  0  0  0  0  0  0  0
   19.3807  -22.6858  -11.7996 C   0  0  0  0  0  0  0  0  0  0  0  0
   18.4205  -22.0927  -11.2744 O   0  0  0  0  0  0  0  0  0  0  0  0
   22.6040  -19.8903  -12.5289 C   0  0  0  0  0  0  0  0  0  0  0  0
   22.3123  -18.8458  -11.8421 O   0  0  0  0  0  0  0  0  0  0  0  0
   19.3022  -24.0800  -11.8130 O   0  0  0  0  0  0  0  0  0  0  0  0
   22.6784  -19.7265  -13.9242 N   0  0  0  0  0  0  0  0  0  0  0  0
   22.5447  -18.4005  -14.4904 C   0  0  1  0  0  0  0  0  0  0  0  0
   23.4993  -18.2964  -15.6395 C   0  0  0  0  0  0  0  0  0  0  0  0
   23.4665  -19.4253  -16.6038 C   0  0  0  0  0  0  0  0  0  0  0  0
   23.9451  -19.1299  -17.9586 C   0  0  0  0  0  0  0  0  0  0  0  0
   24.2788  -17.9548  -18.2556 O   0  0  0  0  0  0  0  0  0  0  0  0
   21.1196  -18.2926  -14.9602 C   0  0  0  0  0  0  0  0  0  0  0  0
   20.2755  -19.4020  -14.9851 O   0  0  0  0  0  0  0  0  0  0  0  0
   24.0534  -20.0918  -18.9514 O   0  0  0  0  0  0  0  0  0  0  0  0
   20.6349  -17.2016  -15.3479 O   0  0  0  0  0  0  0  0  0  0  0  0
  2  1  1  6
  2  3  1  0
  4  5  2  0
  4  3  1  0
  6  5  1  0
  7 12  2  0
  7  6  1  0
  8  7  1  0
  9 10  1  0
  9  8  2  0
 10 11  2  0
 11 12  1  0
 12  4  1  0
 13  2  1  0
 14 13  2  0
 15 13  1  0
 16 15  1  0
 16 17  1  1
 18 19  1  0
 18 17  1  0
 19 23  1  0
 20 19  2  0
 21 24  1  0
 21 16  1  0
 22 21  2  0
 25 24  1  0
 25 30  1  0
 25 26  1  6
 26 27  1  0
 27 28  1  0
 28 29  2  0
 30 31  1  0
 32 28  1  0
 33 30  2  0
M  END
$$$$
