WEE.pdb
     RDKit          3D

 33 34  0  0  1  0  0  0  0  0999 V2000
   26.7496  -22.6703  -12.3916 N   0  0  0  0  0  0  0  0  0  0  0  0
   26.0168  -21.5626  -11.9007 C   0  0  1  0  0  0  0  0  0  0  0  0
   26.7655  -20.2940  -11.6853 C   0  0  0  0  0  0  0  0  0  0  0  0
   27.8784  -20.4814  -10.7499 C   0  0  0  0  0  0  0  0  0  0  0  0
   29.1737  -20.7690  -11.1342 C   0  0  0  0  0  0  0  0  0  0  0  0
   29.8932  -20.8389  -10.0084 N   0  0  0  0  0  0  0  0  0  0  0  0
   29.1104  -20.6090   -8.9347 C   0  0  0  0  0  0  0  0  0  0  0  0
   29.3536  -20.5714   -7.5747 C   0  0  0  0  0  0  0  0  0  0  0  0
   28.3321  -20.3116   -6.7002 C   0  0  0  0  0  0  0  0  0  0  0  0
   27.0403  -20.0801   -7.1211 C   0  0  0  0  0  0  0  0  0  0  0  0
   26.7892  -20.1161   -8.4828 C   0  0  0  0  0  0  0  0  0  0  0  0
   27.8185  -20.3771   -9.3657 C   0  0  0  0  0  0  0  0  0  0  0  0
   24.7694  -21.2531  -12.6527 C   0  0  0  0  0  0  0  0  0  0  0  0
   24.7220  -21.6913  -13.8180 O   0  0  0  0  0  0  0  0  0  0  0  0
   23.6802  -20.5307  -12.1692 N   0  0  0  0  0  0  0  0  0  0  0  0
   22.3651  -20.5774  -12.6750 C   0  0  1  0  0  0  0  0  0  0  0  0
   21.2514  -21.0338  -11.8136 C   0  0  0  0  0  0  0  0  0  0  0  0
   19.9532  -21.1392  -12.5370 C   0  0  0  0  0  0  0  0  0  0  0  0
   18.8976  -21.5890  -11.5713 C   0  0  0  0  0  0  0  0  0  0  0  0
   17.7419  -21.9003  -11.9136 O   0  0  0  0  0  0  0  0  0  0  0  0
   22.0853  -19.4045  -13.5157 C   0  0  0  0  0  0  0  0  0  0  0  0
   22.0050  -18.2507  -12.9589 O   0  0  0  0  0  0  0  0  0  0  0  0
   19.1742  -21.6806  -10.2056 O   0  0  0  0  0  0  0  0  0  0  0  0
   21.8946  -19.4466  -14.9089 N   0  0  0  0  0  0  0  0  0  0  0  0
   21.8824  -18.2089  -15.6603 C   0  0  1  0  0  0  0  0  0  0  0  0
   22.5162  -18.4762  -16.9905 C   0  0  0  0  0  0  0  0  0  0  0  0
   23.8436  -17.8461  -17.2057 C   0  0  0  0  0  0  0  0  0  0  0  0
   24.1267  -17.3893  -18.5706 C   0  0  0  0  0  0  0  0  0  0  0  0
   25.2374  -16.8603  -18.8294 O   0  0  0  0  0  0  0  0  0  0  0  0
   20.4338  -17.8341  -15.8175 C   0  0  0  0  0  0  0  0  0  0  0  0
   19.4399  -18.8046  -15.9369 O   0  0  0  0  0  0  0  0  0  0  0  0
   23.2215  -17.5101  -19.6141 O   0  0  0  0  0  0  0  0  0  0  0  0
   20.0633  -16.6353  -15.8474 O   0  0  0  0  0  0  0  0  0  0  0  0
  2  1  1  6
  2  3  1  0
  4  5  2  0
  4  3  1  0
  6  5  1  0
  7 12  2  0
  7  6  1  0
  8  7  1  0
  9 10  1  0
  9  8  2  0
 10 11  2  0
 11 12  1  0
 12  4  1  0
 13  2  1  0
 14 13  2  0
 15 13  1  0
 16 15  1  0
 16 17  1  1
 18 19  1  0
 18 17  1  0
 19 23  1  0
 20 19  2  0
 21 24  1  0
 21 16  1  0
 22 21  2  0
 25 24  1  0
 25 30  1  0
 25 26  1  6
 26 27  1  0
 27 28  1  0
 28 29  2  0
 30 31  1  0
 32 28  1  0
 33 30  2  0
M  END
$$$$
