WEE.pdb
     RDKit          3D

 33 34  0  0  1  0  0  0  0  0999 V2000
   27.8520  -19.9145  -17.1792 N   0  0  0  0  0  0  0  0  0  0  0  0
   27.1840  -19.1180  -16.2179 C   0  0  1  0  0  0  0  0  0  0  0  0
   26.3157  -18.0218  -16.7284 C   0  0  0  0  0  0  0  0  0  0  0  0
   27.1034  -16.8406  -17.0933 C   0  0  0  0  0  0  0  0  0  0  0  0
   27.4970  -16.5398  -18.3827 C   0  0  0  0  0  0  0  0  0  0  0  0
   28.1677  -15.3843  -18.3112 N   0  0  0  0  0  0  0  0  0  0  0  0
   28.2140  -14.9453  -17.0369 C   0  0  0  0  0  0  0  0  0  0  0  0
   28.7752  -13.8339  -16.4369 C   0  0  0  0  0  0  0  0  0  0  0  0
   28.6623  -13.6519  -15.0842 C   0  0  0  0  0  0  0  0  0  0  0  0
   27.9995  -14.5461  -14.2713 C   0  0  0  0  0  0  0  0  0  0  0  0
   27.4345  -15.6622  -14.8659 C   0  0  0  0  0  0  0  0  0  0  0  0
   27.5469  -15.8465  -16.2299 C   0  0  0  0  0  0  0  0  0  0  0  0
   26.4250  -19.8814  -15.1891 C   0  0  0  0  0  0  0  0  0  0  0  0
   25.8285  -20.8940  -15.6031 O   0  0  0  0  0  0  0  0  0  0  0  0
   26.3311  -19.5613  -13.8361 N   0  0  0  0  0  0  0  0  0  0  0  0
   25.5606  -20.2461  -12.8745 C   0  0  1  0  0  0  0  0  0  0  0  0
   25.9759  -20.2522  -11.4539 C   0  0  0  0  0  0  0  0  0  0  0  0
   25.1143  -21.1099  -10.5927 C   0  0  0  0  0  0  0  0  0  0  0  0
   25.6052  -21.0215   -9.1783 C   0  0  0  0  0  0  0  0  0  0  0  0
   26.1060  -19.9925   -8.6886 O   0  0  0  0  0  0  0  0  0  0  0  0
   24.1242  -20.0544  -13.1209 C   0  0  0  0  0  0  0  0  0  0  0  0
   23.6826  -18.8630  -13.3035 O   0  0  0  0  0  0  0  0  0  0  0  0
   25.5188  -22.1231   -8.3244 O   0  0  0  0  0  0  0  0  0  0  0  0
   23.1764  -21.0927  -13.1735 N   0  0  0  0  0  0  0  0  0  0  0  0
   21.7970  -20.7783  -13.4816 C   0  0  1  0  0  0  0  0  0  0  0  0
   21.1960  -21.9729  -14.1556 C   0  0  0  0  0  0  0  0  0  0  0  0
   19.7618  -21.8487  -14.5203 C   0  0  0  0  0  0  0  0  0  0  0  0
   19.4766  -21.5942  -15.9365 C   0  0  0  0  0  0  0  0  0  0  0  0
   19.9826  -22.3384  -16.8142 O   0  0  0  0  0  0  0  0  0  0  0  0
   21.1285  -20.5097  -12.1608 C   0  0  0  0  0  0  0  0  0  0  0  0
   21.4506  -21.2432  -11.0197 O   0  0  0  0  0  0  0  0  0  0  0  0
   18.6637  -20.5589  -16.3725 O   0  0  0  0  0  0  0  0  0  0  0  0
   20.2558  -19.6165  -12.0340 O   0  0  0  0  0  0  0  0  0  0  0  0
  2  1  1  6
  2  3  1  0
  4  5  2  0
  4  3  1  0
  6  5  1  0
  7 12  2  0
  7  6  1  0
  8  7  1  0
  9 10  1  0
  9  8  2  0
 10 11  2  0
 11 12  1  0
 12  4  1  0
 13  2  1  0
 14 13  2  0
 15 13  1  0
 16 15  1  0
 16 17  1  1
 18 19  1  0
 18 17  1  0
 19 23  1  0
 20 19  2  0
 21 24  1  0
 21 16  1  0
 22 21  2  0
 25 24  1  0
 25 30  1  0
 25 26  1  1
 26 27  1  0
 27 28  1  0
 28 29  2  0
 30 31  1  0
 32 28  1  0
 33 30  2  0
M  END
$$$$
