WEE.pdb
     RDKit          3D

 33 34  0  0  1  0  0  0  0  0999 V2000
   27.8476  -21.8596   -9.1392 N   0  0  0  0  0  0  0  0  0  0  0  0
   26.6511  -21.1137   -9.2693 C   0  0  1  0  0  0  0  0  0  0  0  0
   26.5667  -19.8286   -8.5227 C   0  0  0  0  0  0  0  0  0  0  0  0
   26.7928  -20.0270   -7.0880 C   0  0  0  0  0  0  0  0  0  0  0  0
   26.0332  -20.8624   -6.2921 C   0  0  0  0  0  0  0  0  0  0  0  0
   26.5601  -20.7933   -5.0642 N   0  0  0  0  0  0  0  0  0  0  0  0
   27.6150  -19.9534   -5.0515 C   0  0  0  0  0  0  0  0  0  0  0  0
   28.4839  -19.5376   -4.0604 C   0  0  0  0  0  0  0  0  0  0  0  0
   29.4839  -18.6481   -4.3511 C   0  0  0  0  0  0  0  0  0  0  0  0
   29.6707  -18.1342   -5.6162 C   0  0  0  0  0  0  0  0  0  0  0  0
   28.8037  -18.5466   -6.6145 C   0  0  0  0  0  0  0  0  0  0  0  0
   27.7954  -19.4442   -6.3229 C   0  0  0  0  0  0  0  0  0  0  0  0
   26.2102  -20.8752  -10.6715 C   0  0  0  0  0  0  0  0  0  0  0  0
   27.0894  -20.4521  -11.4463 O   0  0  0  0  0  0  0  0  0  0  0  0
   24.9262  -21.0816  -11.1721 N   0  0  0  0  0  0  0  0  0  0  0  0
   24.5396  -20.9881  -12.5245 C   0  0  1  0  0  0  0  0  0  0  0  0
   24.7970  -22.1122  -13.4523 C   0  0  0  0  0  0  0  0  0  0  0  0
   24.4759  -21.7895  -14.8709 C   0  0  0  0  0  0  0  0  0  0  0  0
   25.7533  -21.4987  -15.6009 C   0  0  0  0  0  0  0  0  0  0  0  0
   25.7939  -21.0268  -16.7521 O   0  0  0  0  0  0  0  0  0  0  0  0
   23.2252  -20.3421  -12.6502 C   0  0  0  0  0  0  0  0  0  0  0  0
   22.3289  -20.5886  -11.7651 O   0  0  0  0  0  0  0  0  0  0  0  0
   26.9892  -21.7524  -15.0023 O   0  0  0  0  0  0  0  0  0  0  0  0
   22.8643  -19.4581  -13.6835 N   0  0  0  0  0  0  0  0  0  0  0  0
   21.5161  -18.9317  -13.7272 C   0  0  1  0  0  0  0  0  0  0  0  0
   21.4128  -18.0403  -14.9261 C   0  0  0  0  0  0  0  0  0  0  0  0
   20.0835  -17.4166  -15.1479 C   0  0  0  0  0  0  0  0  0  0  0  0
   19.9619  -16.5628  -16.3345 C   0  0  0  0  0  0  0  0  0  0  0  0
   20.9937  -16.2483  -16.9802 O   0  0  0  0  0  0  0  0  0  0  0  0
   20.6097  -20.1250  -13.8612 C   0  0  0  0  0  0  0  0  0  0  0  0
   19.3646  -20.1670  -13.2352 O   0  0  0  0  0  0  0  0  0  0  0  0
   18.7495  -16.0724  -16.7953 O   0  0  0  0  0  0  0  0  0  0  0  0
   20.9377  -21.1281  -14.5405 O   0  0  0  0  0  0  0  0  0  0  0  0
  2  1  1  6
  2  3  1  0
  4  5  2  0
  4  3  1  0
  6  5  1  0
  7 12  2  0
  7  6  1  0
  8  7  1  0
  9 10  1  0
  9  8  2  0
 10 11  2  0
 11 12  1  0
 12  4  1  0
 13  2  1  0
 14 13  2  0
 15 13  1  0
 16 15  1  0
 16 17  1  1
 18 19  1  0
 18 17  1  0
 19 23  1  0
 20 19  2  0
 21 24  1  0
 21 16  1  0
 22 21  2  0
 25 24  1  0
 25 30  1  0
 25 26  1  6
 26 27  1  0
 27 28  1  0
 28 29  2  0
 30 31  1  0
 32 28  1  0
 33 30  2  0
M  END
$$$$
