WEE.pdb
     RDKit          3D

 33 34  0  0  1  0  0  0  0  0999 V2000
   27.5902  -21.6900  -10.3219 N   0  0  0  0  0  0  0  0  0  0  0  0
   26.4940  -21.0079   -9.7407 C   0  0  1  0  0  0  0  0  0  0  0  0
   26.8027  -19.9786   -8.7105 C   0  0  0  0  0  0  0  0  0  0  0  0
   27.9946  -20.3370   -7.9360 C   0  0  0  0  0  0  0  0  0  0  0  0
   29.0002  -21.1631   -8.3991 C   0  0  0  0  0  0  0  0  0  0  0  0
   29.9140  -21.2262   -7.4239 N   0  0  0  0  0  0  0  0  0  0  0  0
   29.5293  -20.4786   -6.3696 C   0  0  0  0  0  0  0  0  0  0  0  0
   30.0966  -20.2144   -5.1373 C   0  0  0  0  0  0  0  0  0  0  0  0
   29.4534  -19.3988   -4.2446 C   0  0  0  0  0  0  0  0  0  0  0  0
   28.2368  -18.8139   -4.5223 C   0  0  0  0  0  0  0  0  0  0  0  0
   27.6624  -19.0741   -5.7555 C   0  0  0  0  0  0  0  0  0  0  0  0
   28.3103  -19.8956   -6.6570 C   0  0  0  0  0  0  0  0  0  0  0  0
   25.5292  -20.4267  -10.7147 C   0  0  0  0  0  0  0  0  0  0  0  0
   25.3579  -19.1954  -10.6315 O   0  0  0  0  0  0  0  0  0  0  0  0
   24.8211  -21.1323  -11.6857 N   0  0  0  0  0  0  0  0  0  0  0  0
   24.0605  -20.5678  -12.7298 C   0  0  1  0  0  0  0  0  0  0  0  0
   24.5886  -20.5530  -14.1124 C   0  0  0  0  0  0  0  0  0  0  0  0
   25.1404  -21.8673  -14.5455 C   0  0  0  0  0  0  0  0  0  0  0  0
   26.6271  -21.7404  -14.6973 C   0  0  0  0  0  0  0  0  0  0  0  0
   27.4437  -22.4254  -14.0543 O   0  0  0  0  0  0  0  0  0  0  0  0
   22.6395  -20.9173  -12.5909 C   0  0  0  0  0  0  0  0  0  0  0  0
   22.3284  -22.0185  -12.0093 O   0  0  0  0  0  0  0  0  0  0  0  0
   27.1755  -20.8205  -15.5934 O   0  0  0  0  0  0  0  0  0  0  0  0
   21.5725  -20.1257  -13.0535 N   0  0  0  0  0  0  0  0  0  0  0  0
   20.2134  -20.5895  -12.8680 C   0  0  1  0  0  0  0  0  0  0  0  0
   19.2931  -19.4753  -13.2610 C   0  0  0  0  0  0  0  0  0  0  0  0
   19.3294  -18.2759  -12.3862 C   0  0  0  0  0  0  0  0  0  0  0  0
   18.3521  -17.2255  -12.6916 C   0  0  0  0  0  0  0  0  0  0  0  0
   17.5542  -17.3811  -13.6506 O   0  0  0  0  0  0  0  0  0  0  0  0
   20.0510  -21.7727  -13.7830 C   0  0  0  0  0  0  0  0  0  0  0  0
   19.1690  -22.8096  -13.4820 O   0  0  0  0  0  0  0  0  0  0  0  0
   18.2549  -16.0462  -11.9687 O   0  0  0  0  0  0  0  0  0  0  0  0
   20.7020  -21.8731  -14.8514 O   0  0  0  0  0  0  0  0  0  0  0  0
  2  1  1  6
  2  3  1  0
  4  5  2  0
  4  3  1  0
  6  5  1  0
  7 12  2  0
  7  6  1  0
  8  7  1  0
  9 10  1  0
  9  8  2  0
 10 11  2  0
 11 12  1  0
 12  4  1  0
 13  2  1  0
 14 13  2  0
 15 13  1  0
 16 15  1  0
 16 17  1  6
 18 19  1  0
 18 17  1  0
 19 23  1  0
 20 19  2  0
 21 24  1  0
 21 16  1  0
 22 21  2  0
 25 24  1  0
 25 30  1  0
 25 26  1  6
 26 27  1  0
 27 28  1  0
 28 29  2  0
 30 31  1  0
 32 28  1  0
 33 30  2  0
M  END
$$$$
