WEE.pdb
     RDKit          3D

 33 34  0  0  1  0  0  0  0  0999 V2000
   23.3965  -11.3940  -15.3691 N   0  0  0  0  0  0  0  0  0  0  0  0
   22.8260  -10.7143  -16.4724 C   0  0  1  0  0  0  0  0  0  0  0  0
   21.3984  -11.0005  -16.7828 C   0  0  0  0  0  0  0  0  0  0  0  0
   21.1984  -12.4104  -17.1308 C   0  0  0  0  0  0  0  0  0  0  0  0
   22.2193  -13.3352  -17.2348 C   0  0  0  0  0  0  0  0  0  0  0  0
   21.6400  -14.5018  -17.5406 N   0  0  0  0  0  0  0  0  0  0  0  0
   20.3030  -14.3531  -17.6337 C   0  0  0  0  0  0  0  0  0  0  0  0
   19.2700  -15.2247  -17.9226 C   0  0  0  0  0  0  0  0  0  0  0  0
   17.9772  -14.7735  -17.9514 C   0  0  0  0  0  0  0  0  0  0  0  0
   17.6477  -13.4591  -17.7002 C   0  0  0  0  0  0  0  0  0  0  0  0
   18.6779  -12.5800  -17.4098 C   0  0  0  0  0  0  0  0  0  0  0  0
   19.9819  -13.0337  -17.3796 C   0  0  0  0  0  0  0  0  0  0  0  0
   23.0218   -9.2382  -16.4690 C   0  0  0  0  0  0  0  0  0  0  0  0
   22.6976   -8.6558  -15.4163 O   0  0  0  0  0  0  0  0  0  0  0  0
   23.5249   -8.4768  -17.5222 N   0  0  0  0  0  0  0  0  0  0  0  0
   23.7661   -7.0881  -17.4989 C   0  0  1  0  0  0  0  0  0  0  0  0
   25.0448   -6.5453  -18.0098 C   0  0  0  0  0  0  0  0  0  0  0  0
   25.2039   -5.0845  -17.7642 C   0  0  0  0  0  0  0  0  0  0  0  0
   26.5558   -4.6571  -18.2529 C   0  0  0  0  0  0  0  0  0  0  0  0
   27.4095   -5.4500  -18.6911 O   0  0  0  0  0  0  0  0  0  0  0  0
   22.5576   -6.3401  -17.8740 C   0  0  0  0  0  0  0  0  0  0  0  0
   21.9026   -6.7070  -18.9151 O   0  0  0  0  0  0  0  0  0  0  0  0
   26.9260   -3.3107  -18.2369 O   0  0  0  0  0  0  0  0  0  0  0  0
   22.0517   -5.2326  -17.1691 N   0  0  0  0  0  0  0  0  0  0  0  0
   20.8179   -4.6157  -17.6092 C   0  0  1  0  0  0  0  0  0  0  0  0
   20.2360   -3.8767  -16.4440 C   0  0  0  0  0  0  0  0  0  0  0  0
   18.9647   -3.1574  -16.7118 C   0  0  0  0  0  0  0  0  0  0  0  0
   18.3940   -2.4148  -15.5828 C   0  0  0  0  0  0  0  0  0  0  0  0
   18.9815   -2.4285  -14.4715 O   0  0  0  0  0  0  0  0  0  0  0  0
   21.1997   -3.6682  -18.7139 C   0  0  0  0  0  0  0  0  0  0  0  0
   22.4331   -3.0183  -18.7213 O   0  0  0  0  0  0  0  0  0  0  0  0
   17.2197   -1.6829  -15.6722 O   0  0  0  0  0  0  0  0  0  0  0  0
   20.4243   -3.4257  -19.6706 O   0  0  0  0  0  0  0  0  0  0  0  0
  2  1  1  1
  2  3  1  0
  4  5  2  0
  4  3  1  0
  6  5  1  0
  7 12  2  0
  7  6  1  0
  8  7  1  0
  9 10  1  0
  9  8  2  0
 10 11  2  0
 11 12  1  0
 12  4  1  0
 13  2  1  0
 14 13  2  0
 15 13  1  0
 16 15  1  0
 16 17  1  6
 18 19  1  0
 18 17  1  0
 19 23  1  0
 20 19  2  0
 21 24  1  0
 21 16  1  0
 22 21  2  0
 25 24  1  0
 25 30  1  0
 25 26  1  1
 26 27  1  0
 27 28  1  0
 28 29  2  0
 30 31  1  0
 32 28  1  0
 33 30  2  0
M  END
$$$$
