PFS.pdb
     RDKit          3D

 25 26  0  0  1  0  0  0  0  0999 V2000
    7.7346  -15.3763   19.2647 N   0  0  0  0  0  0  0  0  0  0  0  0
    7.4168  -14.9896   17.9026 C   0  0  0  0  0  0  0  0  0  0  0  0
    7.7828  -13.5506   17.7432 C   0  0  0  0  0  0  0  0  0  0  0  0
    8.1732  -13.1294   19.1453 C   0  0  0  0  0  0  0  0  0  0  0  0
    8.7394  -14.4449   19.6686 C   0  0  1  0  0  0  0  0  0  0  0  0
    8.9981  -14.4136   21.1047 C   0  0  0  0  0  0  0  0  0  0  0  0
   10.1339  -14.0423   21.4955 O   0  0  0  0  0  0  0  0  0  0  0  0
    8.0472  -14.7766   22.0934 N   0  0  0  0  0  0  0  0  0  0  0  0
    8.2521  -14.4391   23.4846 C   0  0  1  0  0  0  0  0  0  0  0  0
    6.9900  -13.9566   24.1470 C   0  0  0  0  0  0  0  0  0  0  0  0
    7.2167  -13.4344   25.5137 C   0  0  0  0  0  0  0  0  0  0  0  0
    7.0926  -14.3413   26.5589 C   0  0  0  0  0  0  0  0  0  0  0  0
    7.2880  -13.9373   27.8687 C   0  0  0  0  0  0  0  0  0  0  0  0
    7.6089  -12.6278   28.1572 C   0  0  0  0  0  0  0  0  0  0  0  0
    7.7290  -11.7349   27.1021 C   0  0  0  0  0  0  0  0  0  0  0  0
    7.5333  -12.1475   25.8122 C   0  0  0  0  0  0  0  0  0  0  0  0
    8.6538  -15.6994   24.1766 C   0  0  0  0  0  0  0  0  0  0  0  0
    7.9174  -16.7086   24.0265 O   0  0  0  0  0  0  0  0  0  0  0  0
   12.3995  -16.6051   24.9945 O   0  0  0  0  0  0  0  0  0  0  0  0
   11.4588  -17.6126   24.9405 C   0  0  0  0  0  0  0  0  0  0  0  0
   10.1545  -17.1135   25.5300 C   0  0  2  0  0  0  0  0  0  0  0  0
    9.8153  -15.8014   24.9839 N   0  0  0  0  0  0  0  0  0  0  0  0
   10.2243  -16.9866   26.9964 C   0  0  0  0  0  0  0  0  0  0  0  0
   10.0284  -15.8897   27.5750 O   0  0  0  0  0  0  0  0  0  0  0  0
   10.5171  -18.1180   27.7734 O   0  0  0  0  0  0  0  0  0  0  0  0
  1  2  1  0
  3  2  1  0
  4  5  1  0
  4  3  1  0
  5  6  1  1
  5  1  1  0
  6  7  2  0
  8  6  1  0
  8  9  1  0
  9 17  1  0
 10 11  1  0
  9 10  1  1
 11 16  1  0
 12 11  2  0
 12 13  1  0
 13 14  2  0
 14 15  1  0
 16 15  2  0
 17 18  2  0
 19 20  1  0
 21 20  1  6
 21 23  1  0
 22 21  1  0
 22 17  1  0
 23 24  2  0
 23 25  1  0
M  END
$$$$
