PFS.pdb
     RDKit          3D

 25 26  0  0  1  0  0  0  0  0999 V2000
    7.4447  -15.1799   20.3340 N   0  0  0  0  0  0  0  0  0  0  0  0
    6.8573  -14.6508   19.1172 C   0  0  0  0  0  0  0  0  0  0  0  0
    7.3918  -13.2706   18.9191 C   0  0  0  0  0  0  0  0  0  0  0  0
    8.1854  -13.0157   20.1844 C   0  0  0  0  0  0  0  0  0  0  0  0
    8.6522  -14.4338   20.4941 C   0  0  1  0  0  0  0  0  0  0  0  0
    9.2676  -14.5476   21.8126 C   0  0  0  0  0  0  0  0  0  0  0  0
   10.5125  -14.3969   21.9020 O   0  0  0  0  0  0  0  0  0  0  0  0
    8.5493  -14.8183   23.0061 N   0  0  0  0  0  0  0  0  0  0  0  0
    9.2135  -14.8261   24.2907 C   0  0  1  0  0  0  0  0  0  0  0  0
    8.2730  -14.5087   25.4217 C   0  0  0  0  0  0  0  0  0  0  0  0
    8.9344  -14.5238   26.7461 C   0  0  0  0  0  0  0  0  0  0  0  0
    9.4072  -13.3078   27.2237 C   0  0  0  0  0  0  0  0  0  0  0  0
   10.0386  -13.2318   28.4536 C   0  0  0  0  0  0  0  0  0  0  0  0
   10.2086  -14.3620   29.2247 C   0  0  0  0  0  0  0  0  0  0  0  0
    9.7308  -15.5684   28.7333 C   0  0  0  0  0  0  0  0  0  0  0  0
    9.1085  -15.6294   27.5161 C   0  0  0  0  0  0  0  0  0  0  0  0
    9.7059  -16.2182   24.5101 C   0  0  0  0  0  0  0  0  0  0  0  0
    8.8798  -17.1579   24.3766 O   0  0  0  0  0  0  0  0  0  0  0  0
   13.0878  -19.3726   23.8691 O   0  0  0  0  0  0  0  0  0  0  0  0
   12.6362  -18.0696   23.8321 C   0  0  0  0  0  0  0  0  0  0  0  0
   11.4748  -17.9136   24.7936 C   0  0  2  0  0  0  0  0  0  0  0  0
   11.0478  -16.5177   24.8576 N   0  0  0  0  0  0  0  0  0  0  0  0
   11.8277  -18.3396   26.1593 C   0  0  0  0  0  0  0  0  0  0  0  0
   12.1712  -19.5197   26.4157 O   0  0  0  0  0  0  0  0  0  0  0  0
   11.7808  -17.4065   27.2066 O   0  0  0  0  0  0  0  0  0  0  0  0
  1  2  1  0
  3  2  1  0
  4  5  1  0
  4  3  1  0
  5  6  1  1
  5  1  1  0
  6  7  2  0
  8  6  1  0
  8  9  1  0
  9 17  1  0
 10 11  1  0
  9 10  1  1
 11 16  1  0
 12 11  2  0
 12 13  1  0
 13 14  2  0
 14 15  1  0
 16 15  2  0
 17 18  2  0
 19 20  1  0
 21 20  1  6
 21 23  1  0
 22 21  1  0
 22 17  1  0
 23 24  2  0
 23 25  1  0
M  END
$$$$
