PFS.pdb
     RDKit          3D

 25 26  0  0  1  0  0  0  0  0999 V2000
    7.7655  -15.1963   19.0171 N   0  0  0  0  0  0  0  0  0  0  0  0
    7.5938  -14.8565   17.6168 C   0  0  0  0  0  0  0  0  0  0  0  0
    8.1517  -13.4867   17.4114 C   0  0  0  0  0  0  0  0  0  0  0  0
    8.4964  -13.0330   18.8154 C   0  0  0  0  0  0  0  0  0  0  0  0
    8.8518  -14.3745   19.4471 C   0  0  1  0  0  0  0  0  0  0  0  0
    9.0138  -14.2885   20.8950 C   0  0  0  0  0  0  0  0  0  0  0  0
   10.1074  -13.8629   21.3460 O   0  0  0  0  0  0  0  0  0  0  0  0
    8.0130  -14.6556   21.8316 N   0  0  0  0  0  0  0  0  0  0  0  0
    8.1400  -14.3138   23.2311 C   0  0  1  0  0  0  0  0  0  0  0  0
    6.8683  -13.7416   23.7968 C   0  0  0  0  0  0  0  0  0  0  0  0
    6.9924  -13.3496   25.2190 C   0  0  0  0  0  0  0  0  0  0  0  0
    7.5884  -12.1221   25.4804 C   0  0  0  0  0  0  0  0  0  0  0  0
    7.7442  -11.6780   26.7825 C   0  0  0  0  0  0  0  0  0  0  0  0
    7.3103  -12.4469   27.8414 C   0  0  0  0  0  0  0  0  0  0  0  0
    6.7173  -13.6701   27.5633 C   0  0  0  0  0  0  0  0  0  0  0  0
    6.5695  -14.0970   26.2716 C   0  0  0  0  0  0  0  0  0  0  0  0
    8.4077  -15.5883   23.9609 C   0  0  0  0  0  0  0  0  0  0  0  0
    7.5745  -16.5222   23.8307 O   0  0  0  0  0  0  0  0  0  0  0  0
   11.9727  -17.0146   24.4302 O   0  0  0  0  0  0  0  0  0  0  0  0
   10.8625  -17.8288   24.5159 C   0  0  0  0  0  0  0  0  0  0  0  0
    9.7837  -17.1241   25.3142 C   0  0  2  0  0  0  0  0  0  0  0  0
    9.5470  -15.7839   24.7824 N   0  0  0  0  0  0  0  0  0  0  0  0
   10.1493  -16.9866   26.7350 C   0  0  0  0  0  0  0  0  0  0  0  0
   10.2824  -15.8622   27.2775 O   0  0  0  0  0  0  0  0  0  0  0  0
   10.3558  -18.1392   27.5086 O   0  0  0  0  0  0  0  0  0  0  0  0
  1  2  1  0
  3  2  1  0
  4  5  1  0
  4  3  1  0
  5  6  1  1
  5  1  1  0
  6  7  2  0
  8  6  1  0
  8  9  1  0
  9 17  1  0
 10 11  1  0
  9 10  1  1
 11 16  1  0
 12 11  2  0
 12 13  1  0
 13 14  2  0
 14 15  1  0
 16 15  2  0
 17 18  2  0
 19 20  1  0
 21 20  1  6
 21 23  1  0
 22 21  1  0
 22 17  1  0
 23 24  2  0
 23 25  1  0
M  END
$$$$
