PFS.pdb
     RDKit          3D

 25 26  0  0  1  0  0  0  0  0999 V2000
    7.4642  -14.9682   19.6610 N   0  0  0  0  0  0  0  0  0  0  0  0
    7.1945  -14.3662   18.3685 C   0  0  0  0  0  0  0  0  0  0  0  0
    7.8183  -13.0095   18.3617 C   0  0  0  0  0  0  0  0  0  0  0  0
    8.3106  -12.8414   19.7848 C   0  0  0  0  0  0  0  0  0  0  0  0
    8.6333  -14.2920   20.1261 C   0  0  1  0  0  0  0  0  0  0  0  0
    8.9244  -14.4844   21.5433 C   0  0  0  0  0  0  0  0  0  0  0  0
   10.0634  -14.1599   21.9650 O   0  0  0  0  0  0  0  0  0  0  0  0
    8.0016  -15.0165   22.4808 N   0  0  0  0  0  0  0  0  0  0  0  0
    8.2897  -15.0078   23.8980 C   0  0  1  0  0  0  0  0  0  0  0  0
    7.0391  -14.9931   24.7348 C   0  0  0  0  0  0  0  0  0  0  0  0
    6.9073  -13.7691   25.5572 C   0  0  0  0  0  0  0  0  0  0  0  0
    8.0857  -13.1274   25.9180 C   0  0  0  0  0  0  0  0  0  0  0  0
    8.0537  -11.9760   26.6863 C   0  0  0  0  0  0  0  0  0  0  0  0
    6.8516  -11.4473   27.1061 C   0  0  0  0  0  0  0  0  0  0  0  0
    5.6842  -12.1001   26.7372 C   0  0  0  0  0  0  0  0  0  0  0  0
    5.7301  -13.2373   25.9775 C   0  0  0  0  0  0  0  0  0  0  0  0
    9.0009  -16.2856   24.1984 C   0  0  0  0  0  0  0  0  0  0  0  0
    8.4273  -17.3610   23.8857 O   0  0  0  0  0  0  0  0  0  0  0  0
   13.0469  -18.6229   24.1886 O   0  0  0  0  0  0  0  0  0  0  0  0
   12.4014  -17.4049   24.2423 C   0  0  0  0  0  0  0  0  0  0  0  0
   11.0012  -17.6026   24.7881 C   0  0  2  0  0  0  0  0  0  0  0  0
   10.2780  -16.3332   24.8131 N   0  0  0  0  0  0  0  0  0  0  0  0
   11.0143  -18.1404   26.1599 C   0  0  0  0  0  0  0  0  0  0  0  0
   11.6083  -19.2091   26.4454 O   0  0  0  0  0  0  0  0  0  0  0  0
   10.3471  -17.4446   27.1799 O   0  0  0  0  0  0  0  0  0  0  0  0
  1  2  1  0
  3  2  1  0
  4  5  1  0
  4  3  1  0
  5  6  1  1
  5  1  1  0
  6  7  2  0
  8  6  1  0
  8  9  1  0
  9 17  1  0
 10 11  1  0
  9 10  1  1
 11 16  1  0
 12 11  2  0
 12 13  1  0
 13 14  2  0
 14 15  1  0
 16 15  2  0
 17 18  2  0
 19 20  1  0
 21 20  1  1
 21 23  1  0
 22 21  1  0
 22 17  1  0
 23 24  2  0
 23 25  1  0
M  END
$$$$
