PFS.pdb
     RDKit          3D

 25 26  0  0  1  0  0  0  0  0999 V2000
    7.4696  -15.1477   20.4314 N   0  0  0  0  0  0  0  0  0  0  0  0
    7.0892  -14.5044   19.1875 C   0  0  0  0  0  0  0  0  0  0  0  0
    7.6282  -13.1119   19.2145 C   0  0  0  0  0  0  0  0  0  0  0  0
    8.1912  -12.9796   20.6150 C   0  0  0  0  0  0  0  0  0  0  0  0
    8.6206  -14.4212   20.8647 C   0  0  1  0  0  0  0  0  0  0  0  0
    9.0047  -14.6608   22.2522 C   0  0  0  0  0  0  0  0  0  0  0  0
   10.1436  -14.2825   22.6269 O   0  0  0  0  0  0  0  0  0  0  0  0
    8.1730  -15.2958   23.2106 N   0  0  0  0  0  0  0  0  0  0  0  0
    8.5391  -15.3310   24.6092 C   0  0  1  0  0  0  0  0  0  0  0  0
    7.3639  -15.0755   25.5137 C   0  0  0  0  0  0  0  0  0  0  0  0
    7.2635  -13.6635   25.9473 C   0  0  0  0  0  0  0  0  0  0  0  0
    6.0309  -13.2436   26.4318 C   0  0  0  0  0  0  0  0  0  0  0  0
    5.8493  -11.9390   26.8586 C   0  0  0  0  0  0  0  0  0  0  0  0
    6.8891  -11.0350   26.8098 C   0  0  0  0  0  0  0  0  0  0  0  0
    8.1135  -11.4703   26.3234 C   0  0  0  0  0  0  0  0  0  0  0  0
    8.2792  -12.7625   25.9047 C   0  0  0  0  0  0  0  0  0  0  0  0
    9.0149  -16.7173   24.8928 C   0  0  0  0  0  0  0  0  0  0  0  0
    8.2774  -17.6725   24.5362 O   0  0  0  0  0  0  0  0  0  0  0  0
   12.1980  -17.8525   24.1128 O   0  0  0  0  0  0  0  0  0  0  0  0
   11.9585  -18.7032   25.1720 C   0  0  0  0  0  0  0  0  0  0  0  0
   10.5985  -18.3946   25.7660 C   0  0  2  0  0  0  0  0  0  0  0  0
   10.2467  -16.9949   25.5384 N   0  0  0  0  0  0  0  0  0  0  0  0
   10.5627  -18.6374   27.2189 C   0  0  0  0  0  0  0  0  0  0  0  0
   10.2072  -17.7469   28.0294 O   0  0  0  0  0  0  0  0  0  0  0  0
   10.9346  -19.8956   27.7172 O   0  0  0  0  0  0  0  0  0  0  0  0
  1  2  1  0
  3  2  1  0
  4  5  1  0
  4  3  1  0
  5  6  1  1
  5  1  1  0
  6  7  2  0
  8  6  1  0
  8  9  1  0
  9 17  1  0
 10 11  1  0
  9 10  1  1
 11 16  1  0
 12 11  2  0
 12 13  1  0
 13 14  2  0
 14 15  1  0
 16 15  2  0
 17 18  2  0
 19 20  1  0
 21 20  1  1
 21 23  1  0
 22 21  1  0
 22 17  1  0
 23 24  2  0
 23 25  1  0
M  END
$$$$
