KYC.pdb
     RDKit          3D

 28 28  0  0  1  0  0  0  0  0999 V2000
    9.7942  -16.8206   18.4109 N   0  0  0  0  0  0  0  0  0  0  0  0
    9.1242  -17.4836   19.5092 C   0  0  1  0  0  0  0  0  0  0  0  0
    9.7686  -18.7899   19.9003 C   0  0  0  0  0  0  0  0  0  0  0  0
    9.6707  -19.8033   18.8297 C   0  0  0  0  0  0  0  0  0  0  0  0
    9.1994  -21.1578   19.1954 C   0  0  0  0  0  0  0  0  0  0  0  0
    9.1546  -22.1285   18.0435 C   0  0  0  0  0  0  0  0  0  0  0  0
    8.6333  -23.3831   18.5691 N   0  0  0  0  0  0  0  0  0  0  0  0
    9.2077  -16.5829   20.6937 C   0  0  0  0  0  0  0  0  0  0  0  0
   10.3208  -16.0291   21.0041 O   0  0  0  0  0  0  0  0  0  0  0  0
    6.9121  -11.7073   27.8506 O   0  0  0  0  0  0  0  0  0  0  0  0
    6.9636  -12.4018   26.6582 C   0  0  0  0  0  0  0  0  0  0  0  0
    7.3991  -11.8446   25.4742 C   0  0  0  0  0  0  0  0  0  0  0  0
    7.4221  -12.6156   24.3036 C   0  0  0  0  0  0  0  0  0  0  0  0
    7.0131  -13.9328   24.3169 C   0  0  0  0  0  0  0  0  0  0  0  0
    7.0370  -14.7148   23.1099 C   0  0  0  0  0  0  0  0  0  0  0  0
    8.2857  -15.3733   22.6834 C   0  0  2  0  0  0  0  0  0  0  0  0
    8.1199  -16.2694   21.5474 N   0  0  0  0  0  0  0  0  0  0  0  0
    8.7549  -16.2498   23.8225 C   0  0  0  0  0  0  0  0  0  0  0  0
    8.1933  -17.3377   24.1065 O   0  0  0  0  0  0  0  0  0  0  0  0
    6.5867  -14.4546   25.5088 C   0  0  0  0  0  0  0  0  0  0  0  0
    6.5483  -13.7313   26.6826 C   0  0  0  0  0  0  0  0  0  0  0  0
    9.8681  -15.8206   24.5907 N   0  0  0  0  0  0  0  0  0  0  0  0
   10.4796  -16.6998   25.5627 C   0  0  1  0  0  0  0  0  0  0  0  0
   11.9784  -16.5051   25.4723 C   0  0  0  0  0  0  0  0  0  0  0  0
   12.7022  -17.6070   24.2255 S   0  0  0  0  0  0  0  0  0  0  0  0
    9.9591  -16.4768   26.9122 C   0  0  0  0  0  0  0  0  0  0  0  0
   10.3283  -17.1398   27.9017 O   0  0  0  0  0  0  0  0  0  0  0  0
    9.0114  -15.4861   27.1139 O   0  0  0  0  0  0  0  0  0  0  0  0
  2  1  1  6
  3  2  1  0
  4  3  1  0
  5  4  1  0
  5  6  1  0
  7  6  1  0
  8  2  1  0
  8  9  2  0
 10 11  1  0
 11 12  2  0
 12 13  1  0
 14 13  2  0
 14 15  1  0
 16 15  1  1
 16 17  1  0
 17  8  1  0
 18 16  1  0
 19 18  2  0
 20 14  1  0
 21 11  1  0
 21 20  2  0
 22 18  1  0
 23 26  1  0
 23 22  1  0
 23 24  1  1
 25 24  1  0
 26 28  1  0
 27 26  2  0
M  END
$$$$
