KYC.pdb
     RDKit          3D

 28 28  0  0  1  0  0  0  0  0999 V2000
    7.2667  -15.6659   19.2310 N   0  0  0  0  0  0  0  0  0  0  0  0
    8.4289  -14.8049   19.2816 C   0  0  1  0  0  0  0  0  0  0  0  0
    8.2407  -13.5042   18.5417 C   0  0  0  0  0  0  0  0  0  0  0  0
    7.5452  -13.6913   17.2517 C   0  0  0  0  0  0  0  0  0  0  0  0
    8.3467  -14.1280   16.0866 C   0  0  0  0  0  0  0  0  0  0  0  0
    7.5766  -14.1824   14.7922 C   0  0  0  0  0  0  0  0  0  0  0  0
    8.5111  -14.6186   13.7634 N   0  0  0  0  0  0  0  0  0  0  0  0
    8.6711  -14.4633   20.7120 C   0  0  0  0  0  0  0  0  0  0  0  0
    9.7407  -13.8461   21.0541 O   0  0  0  0  0  0  0  0  0  0  0  0
    7.9845  -13.2556   29.5054 O   0  0  0  0  0  0  0  0  0  0  0  0
    7.7462  -13.5236   28.1720 C   0  0  0  0  0  0  0  0  0  0  0  0
    7.3707  -14.7652   27.7033 C   0  0  0  0  0  0  0  0  0  0  0  0
    7.1467  -14.9587   26.3331 C   0  0  0  0  0  0  0  0  0  0  0  0
    7.2968  -13.9193   25.4389 C   0  0  0  0  0  0  0  0  0  0  0  0
    7.0681  -14.1285   24.0343 C   0  0  0  0  0  0  0  0  0  0  0  0
    8.1759  -14.5662   23.1648 C   0  0  2  0  0  0  0  0  0  0  0  0
    7.7874  -14.7734   21.7766 N   0  0  0  0  0  0  0  0  0  0  0  0
    8.6412  -15.9173   23.6587 C   0  0  0  0  0  0  0  0  0  0  0  0
    7.9669  -16.9634   23.4840 O   0  0  0  0  0  0  0  0  0  0  0  0
    7.6705  -12.7000   25.9375 C   0  0  0  0  0  0  0  0  0  0  0  0
    7.9006  -12.4671   27.2774 C   0  0  0  0  0  0  0  0  0  0  0  0
    9.8827  -15.9961   24.3411 N   0  0  0  0  0  0  0  0  0  0  0  0
   10.3810  -17.2639   24.8269 C   0  0  1  0  0  0  0  0  0  0  0  0
   11.5618  -17.6501   23.9614 C   0  0  0  0  0  0  0  0  0  0  0  0
   12.8929  -16.4241   24.0947 S   0  0  0  0  0  0  0  0  0  0  0  0
   10.7134  -17.2164   26.2513 C   0  0  0  0  0  0  0  0  0  0  0  0
   10.6710  -16.1679   26.9250 O   0  0  0  0  0  0  0  0  0  0  0  0
   11.0948  -18.3836   26.8937 O   0  0  0  0  0  0  0  0  0  0  0  0
  2  1  1  1
  3  2  1  0
  4  3  1  0
  5  4  1  0
  5  6  1  0
  7  6  1  0
  8  2  1  0
  8  9  2  0
 10 11  1  0
 11 12  2  0
 12 13  1  0
 14 13  2  0
 14 15  1  0
 16 15  1  1
 16 17  1  0
 17  8  1  0
 18 16  1  0
 19 18  2  0
 20 14  1  0
 21 11  1  0
 21 20  2  0
 22 18  1  0
 23 26  1  0
 23 22  1  0
 23 24  1  6
 25 24  1  0
 26 28  1  0
 27 26  2  0
M  END
$$$$
