KYC.pdb
     RDKit          3D

 28 28  0  0  1  0  0  0  0  0999 V2000
    8.1945  -17.7955   20.1962 N   0  0  0  0  0  0  0  0  0  0  0  0
    8.8663  -16.5934   20.6415 C   0  0  1  0  0  0  0  0  0  0  0  0
    8.2132  -15.3269   20.1477 C   0  0  0  0  0  0  0  0  0  0  0  0
    8.5282  -15.0522   18.7306 C   0  0  0  0  0  0  0  0  0  0  0  0
    7.9592  -13.8320   18.1157 C   0  0  0  0  0  0  0  0  0  0  0  0
    8.2345  -13.6976   16.6401 C   0  0  0  0  0  0  0  0  0  0  0  0
    7.5855  -12.4701   16.2000 N   0  0  0  0  0  0  0  0  0  0  0  0
    8.7991  -16.5683   22.1303 C   0  0  0  0  0  0  0  0  0  0  0  0
    7.7709  -17.0352   22.7361 O   0  0  0  0  0  0  0  0  0  0  0  0
   10.6673  -15.3795   30.7784 O   0  0  0  0  0  0  0  0  0  0  0  0
   10.7217  -15.4544   29.4006 C   0  0  0  0  0  0  0  0  0  0  0  0
   10.8644  -14.3505   28.5862 C   0  0  0  0  0  0  0  0  0  0  0  0
   10.9114  -14.5082   27.1941 C   0  0  0  0  0  0  0  0  0  0  0  0
   10.8165  -15.7593   26.6210 C   0  0  0  0  0  0  0  0  0  0  0  0
   10.8622  -15.9106   25.1914 C   0  0  0  0  0  0  0  0  0  0  0  0
    9.6102  -15.9313   24.4124 C   0  0  2  0  0  0  0  0  0  0  0  0
    9.8135  -16.0513   22.9753 N   0  0  0  0  0  0  0  0  0  0  0  0
    8.9230  -14.5994   24.6120 C   0  0  0  0  0  0  0  0  0  0  0  0
    8.9295  -13.7031   23.7311 O   0  0  0  0  0  0  0  0  0  0  0  0
   10.6756  -16.8335   27.4582 C   0  0  0  0  0  0  0  0  0  0  0  0
   10.6250  -16.7224   28.8321 C   0  0  0  0  0  0  0  0  0  0  0  0
    8.2506  -14.3636   25.8391 N   0  0  0  0  0  0  0  0  0  0  0  0
    7.5480  -13.1209   26.0710 C   0  0  1  0  0  0  0  0  0  0  0  0
    6.1974  -13.2294   25.3952 C   0  0  0  0  0  0  0  0  0  0  0  0
    5.1135  -11.8597   25.8869 S   0  0  0  0  0  0  0  0  0  0  0  0
    7.4453  -12.8031   27.4958 C   0  0  0  0  0  0  0  0  0  0  0  0
    7.6656  -13.6372   28.3962 O   0  0  0  0  0  0  0  0  0  0  0  0
    7.0874  -11.5195   27.8760 O   0  0  0  0  0  0  0  0  0  0  0  0
  2  1  1  6
  3  2  1  0
  4  3  1  0
  5  4  1  0
  5  6  1  0
  7  6  1  0
  8  2  1  0
  8  9  2  0
 10 11  1  0
 11 12  2  0
 12 13  1  0
 14 13  2  0
 14 15  1  0
 16 15  1  1
 16 17  1  0
 17  8  1  0
 18 16  1  0
 19 18  2  0
 20 14  1  0
 21 11  1  0
 21 20  2  0
 22 18  1  0
 23 26  1  0
 23 22  1  0
 23 24  1  1
 25 24  1  0
 26 28  1  0
 27 26  2  0
M  END
$$$$
