KYC.pdb
     RDKit          3D

 28 28  0  0  1  0  0  0  0  0999 V2000
    7.8919  -15.6774   19.0128 N   0  0  0  0  0  0  0  0  0  0  0  0
    8.8066  -14.5588   19.0952 C   0  0  1  0  0  0  0  0  0  0  0  0
    8.3515  -13.3563   18.3068 C   0  0  0  0  0  0  0  0  0  0  0  0
    7.9011  -13.7181   16.9470 C   0  0  0  0  0  0  0  0  0  0  0  0
    8.9028  -14.2675   16.0059 C   0  0  0  0  0  0  0  0  0  0  0  0
    8.3641  -14.5537   14.6279 C   0  0  0  0  0  0  0  0  0  0  0  0
    9.4907  -14.9985   13.8186 N   0  0  0  0  0  0  0  0  0  0  0  0
    8.8778  -14.1431   20.5247 C   0  0  0  0  0  0  0  0  0  0  0  0
    9.6232  -13.1607   20.8730 O   0  0  0  0  0  0  0  0  0  0  0  0
    6.5807  -11.5537   28.6061 O   0  0  0  0  0  0  0  0  0  0  0  0
    6.6939  -12.0875   27.3376 C   0  0  0  0  0  0  0  0  0  0  0  0
    7.3389  -11.4472   26.3002 C   0  0  0  0  0  0  0  0  0  0  0  0
    7.4120  -12.0548   25.0391 C   0  0  0  0  0  0  0  0  0  0  0  0
    6.8448  -13.2923   24.8170 C   0  0  0  0  0  0  0  0  0  0  0  0
    6.9220  -13.9062   23.5184 C   0  0  0  0  0  0  0  0  0  0  0  0
    8.2355  -14.2499   22.9430 C   0  0  2  0  0  0  0  0  0  0  0  0
    8.1653  -14.7635   21.5820 N   0  0  0  0  0  0  0  0  0  0  0  0
    8.8183  -15.3748   23.7683 C   0  0  0  0  0  0  0  0  0  0  0  0
    8.1266  -16.0368   24.5824 O   0  0  0  0  0  0  0  0  0  0  0  0
    6.2121  -13.9002   25.8682 C   0  0  0  0  0  0  0  0  0  0  0  0
    6.1177  -13.3376   27.1241 C   0  0  0  0  0  0  0  0  0  0  0  0
   10.1938  -15.6857   23.6106 N   0  0  0  0  0  0  0  0  0  0  0  0
   10.7894  -16.7916   24.3276 C   0  0  1  0  0  0  0  0  0  0  0  0
   10.0394  -18.0461   23.9324 C   0  0  0  0  0  0  0  0  0  0  0  0
   10.3073  -19.3711   25.1429 S   0  0  0  0  0  0  0  0  0  0  0  0
   12.2295  -16.8924   24.0877 C   0  0  0  0  0  0  0  0  0  0  0  0
   12.8066  -16.3004   23.1542 O   0  0  0  0  0  0  0  0  0  0  0  0
   12.9996  -17.6792   24.9295 O   0  0  0  0  0  0  0  0  0  0  0  0
  2  1  1  1
  3  2  1  0
  4  3  1  0
  5  4  1  0
  5  6  1  0
  7  6  1  0
  8  2  1  0
  8  9  2  0
 10 11  1  0
 11 12  2  0
 12 13  1  0
 14 13  2  0
 14 15  1  0
 16 15  1  1
 16 17  1  0
 17  8  1  0
 18 16  1  0
 19 18  2  0
 20 14  1  0
 21 11  1  0
 21 20  2  0
 22 18  1  0
 23 26  1  0
 23 22  1  0
 23 24  1  6
 25 24  1  0
 26 28  1  0
 27 26  2  0
M  END
$$$$
