KYC.pdb
     RDKit          3D

 28 28  0  0  1  0  0  0  0  0999 V2000
    9.8314  -18.3918   18.0409 N   0  0  0  0  0  0  0  0  0  0  0  0
    9.2121  -18.5822   19.3351 C   0  0  1  0  0  0  0  0  0  0  0  0
    9.5655  -19.9002   19.9776 C   0  0  0  0  0  0  0  0  0  0  0  0
   10.9223  -20.3545   19.6100 C   0  0  0  0  0  0  0  0  0  0  0  0
   11.4019  -21.6374   20.1714 C   0  0  0  0  0  0  0  0  0  0  0  0
   12.7853  -22.0303   19.7208 C   0  0  0  0  0  0  0  0  0  0  0  0
   13.1098  -23.2798   20.3957 N   0  0  0  0  0  0  0  0  0  0  0  0
    9.7172  -17.5073   20.2356 C   0  0  0  0  0  0  0  0  0  0  0  0
   10.8761  -16.9964   20.0409 O   0  0  0  0  0  0  0  0  0  0  0  0
    6.7879  -12.1259   17.4469 O   0  0  0  0  0  0  0  0  0  0  0  0
    7.1637  -12.7949   18.5950 C   0  0  0  0  0  0  0  0  0  0  0  0
    6.4443  -13.8415   19.1328 C   0  0  0  0  0  0  0  0  0  0  0  0
    6.8913  -14.4708   20.3029 C   0  0  0  0  0  0  0  0  0  0  0  0
    8.0480  -14.0572   20.9300 C   0  0  0  0  0  0  0  0  0  0  0  0
    8.4967  -14.7070   22.1323 C   0  0  0  0  0  0  0  0  0  0  0  0
    9.4816  -15.8018   22.0543 C   0  0  2  0  0  0  0  0  0  0  0  0
    9.0013  -16.9752   21.3377 N   0  0  0  0  0  0  0  0  0  0  0  0
    9.7550  -16.2750   23.4640 C   0  0  0  0  0  0  0  0  0  0  0  0
    8.8468  -16.7219   24.2091 O   0  0  0  0  0  0  0  0  0  0  0  0
    8.7380  -13.0156   20.3698 C   0  0  0  0  0  0  0  0  0  0  0  0
    8.3333  -12.3693   19.2204 C   0  0  0  0  0  0  0  0  0  0  0  0
   11.0854  -16.2082   23.9528 N   0  0  0  0  0  0  0  0  0  0  0  0
   11.5272  -17.0812   25.0179 C   0  0  1  0  0  0  0  0  0  0  0  0
   11.2122  -18.5023   24.6011 C   0  0  0  0  0  0  0  0  0  0  0  0
   11.1501  -19.6030   26.0423 S   0  0  0  0  0  0  0  0  0  0  0  0
   12.9410  -16.8851   25.3409 C   0  0  0  0  0  0  0  0  0  0  0  0
   13.7187  -16.2294   24.6197 O   0  0  0  0  0  0  0  0  0  0  0  0
   13.4523  -17.4488   26.4990 O   0  0  0  0  0  0  0  0  0  0  0  0
  2  1  1  6
  3  2  1  0
  4  3  1  0
  5  4  1  0
  5  6  1  0
  7  6  1  0
  8  2  1  0
  8  9  2  0
 10 11  1  0
 11 12  2  0
 12 13  1  0
 14 13  2  0
 14 15  1  0
 16 15  1  1
 16 17  1  0
 17  8  1  0
 18 16  1  0
 19 18  2  0
 20 14  1  0
 21 11  1  0
 21 20  2  0
 22 18  1  0
 23 26  1  0
 23 22  1  0
 23 24  1  6
 25 24  1  0
 26 28  1  0
 27 26  2  0
M  END
$$$$
