KYC.pdb
     RDKit          3D

 28 28  0  0  1  0  0  0  0  0999 V2000
    8.4676  -18.4249   20.0190 N   0  0  0  0  0  0  0  0  0  0  0  0
    9.8171  -18.1677   20.4745 C   0  0  1  0  0  0  0  0  0  0  0  0
   10.7247  -17.6472   19.3883 C   0  0  0  0  0  0  0  0  0  0  0  0
   10.4961  -18.3268   18.0965 C   0  0  0  0  0  0  0  0  0  0  0  0
   11.2964  -17.8906   16.9303 C   0  0  0  0  0  0  0  0  0  0  0  0
   10.9293  -18.5745   15.6384 C   0  0  0  0  0  0  0  0  0  0  0  0
   11.8289  -18.0565   14.6165 N   0  0  0  0  0  0  0  0  0  0  0  0
    9.7417  -17.1126   21.5245 C   0  0  0  0  0  0  0  0  0  0  0  0
   10.8157  -16.6320   22.0322 O   0  0  0  0  0  0  0  0  0  0  0  0
    6.6025  -11.3302   27.5846 O   0  0  0  0  0  0  0  0  0  0  0  0
    6.7403  -12.2164   26.5346 C   0  0  0  0  0  0  0  0  0  0  0  0
    6.0293  -13.3942   26.4379 C   0  0  0  0  0  0  0  0  0  0  0  0
    6.2252  -14.2429   25.3395 C   0  0  0  0  0  0  0  0  0  0  0  0
    7.1247  -13.9167   24.3461 C   0  0  0  0  0  0  0  0  0  0  0  0
    7.3214  -14.7957   23.2246 C   0  0  0  0  0  0  0  0  0  0  0  0
    8.5475  -15.6100   23.1332 C   0  0  2  0  0  0  0  0  0  0  0  0
    8.5368  -16.5682   22.0365 N   0  0  0  0  0  0  0  0  0  0  0  0
    8.6420  -16.4409   24.3929 C   0  0  0  0  0  0  0  0  0  0  0  0
    7.7221  -17.2171   24.7545 O   0  0  0  0  0  0  0  0  0  0  0  0
    7.8140  -12.7404   24.4730 C   0  0  0  0  0  0  0  0  0  0  0  0
    7.6512  -11.8774   25.5367 C   0  0  0  0  0  0  0  0  0  0  0  0
    9.8133  -16.3334   25.1865 N   0  0  0  0  0  0  0  0  0  0  0  0
    9.9690  -17.1250   26.3869 C   0  0  1  0  0  0  0  0  0  0  0  0
   10.5693  -18.4542   25.9803 C   0  0  0  0  0  0  0  0  0  0  0  0
   10.9768  -19.4555   27.4376 S   0  0  0  0  0  0  0  0  0  0  0  0
   10.7605  -16.4329   27.4049 C   0  0  0  0  0  0  0  0  0  0  0  0
   10.8302  -16.8167   28.5893 O   0  0  0  0  0  0  0  0  0  0  0  0
   11.4702  -15.2969   27.0497 O   0  0  0  0  0  0  0  0  0  0  0  0
  2  1  1  6
  3  2  1  0
  4  3  1  0
  5  4  1  0
  5  6  1  0
  7  6  1  0
  8  2  1  0
  8  9  2  0
 10 11  1  0
 11 12  2  0
 12 13  1  0
 14 13  2  0
 14 15  1  0
 16 15  1  1
 16 17  1  0
 17  8  1  0
 18 16  1  0
 19 18  2  0
 20 14  1  0
 21 11  1  0
 21 20  2  0
 22 18  1  0
 23 26  1  0
 23 22  1  0
 23 24  1  6
 25 24  1  0
 26 28  1  0
 27 26  2  0
M  END
$$$$
