KYC.pdb
     RDKit          3D

 28 28  0  0  1  0  0  0  0  0999 V2000
    7.5858  -17.8500   18.9161 N   0  0  0  0  0  0  0  0  0  0  0  0
    8.8776  -17.1994   18.8650 C   0  0  1  0  0  0  0  0  0  0  0  0
    9.0592  -16.3279   17.6475 C   0  0  0  0  0  0  0  0  0  0  0  0
    9.0046  -17.1045   16.3919 C   0  0  0  0  0  0  0  0  0  0  0  0
   10.2733  -17.3493   15.6700 C   0  0  0  0  0  0  0  0  0  0  0  0
   10.1111  -18.0963   14.3712 C   0  0  0  0  0  0  0  0  0  0  0  0
   10.2331  -17.1147   13.3019 N   0  0  0  0  0  0  0  0  0  0  0  0
    8.9790  -16.3113   20.0576 C   0  0  0  0  0  0  0  0  0  0  0  0
   10.0614  -15.6655   20.2890 O   0  0  0  0  0  0  0  0  0  0  0  0
    7.1753  -12.2957   27.8454 O   0  0  0  0  0  0  0  0  0  0  0  0
    7.0952  -12.9452   26.6295 C   0  0  0  0  0  0  0  0  0  0  0  0
    6.5262  -14.1915   26.4714 C   0  0  0  0  0  0  0  0  0  0  0  0
    6.4826  -14.7861   25.2027 C   0  0  0  0  0  0  0  0  0  0  0  0
    7.0035  -14.1398   24.1011 C   0  0  0  0  0  0  0  0  0  0  0  0
    6.9573  -14.7596   22.8039 C   0  0  0  0  0  0  0  0  0  0  0  0
    8.1757  -15.3613   22.2311 C   0  0  2  0  0  0  0  0  0  0  0  0
    7.9416  -16.1072   21.0024 N   0  0  0  0  0  0  0  0  0  0  0  0
    8.6979  -16.3747   23.2241 C   0  0  0  0  0  0  0  0  0  0  0  0
    8.1940  -17.5201   23.3408 O   0  0  0  0  0  0  0  0  0  0  0  0
    7.5610  -12.9040   24.2931 C   0  0  0  0  0  0  0  0  0  0  0  0
    7.6242  -12.2838   25.5235 C   0  0  0  0  0  0  0  0  0  0  0  0
    9.7948  -16.0105   24.0474 N   0  0  0  0  0  0  0  0  0  0  0  0
   10.4065  -16.9750   24.9346 C   0  0  1  0  0  0  0  0  0  0  0  0
   11.6579  -17.4887   24.2542 C   0  0  0  0  0  0  0  0  0  0  0  0
   12.4363  -18.8031   25.2335 S   0  0  0  0  0  0  0  0  0  0  0  0
   10.6712  -16.4146   26.2603 C   0  0  0  0  0  0  0  0  0  0  0  0
   11.0128  -15.2291   26.4416 O   0  0  0  0  0  0  0  0  0  0  0  0
   10.5400  -17.2281   27.3745 O   0  0  0  0  0  0  0  0  0  0  0  0
  2  1  1  6
  3  2  1  0
  4  3  1  0
  5  4  1  0
  5  6  1  0
  7  6  1  0
  8  2  1  0
  8  9  2  0
 10 11  1  0
 11 12  2  0
 12 13  1  0
 14 13  2  0
 14 15  1  0
 16 15  1  1
 16 17  1  0
 17  8  1  0
 18 16  1  0
 19 18  2  0
 20 14  1  0
 21 11  1  0
 21 20  2  0
 22 18  1  0
 23 26  1  0
 23 22  1  0
 23 24  1  6
 25 24  1  0
 26 28  1  0
 27 26  2  0
M  END
$$$$
