KYC.pdb
     RDKit          3D

 28 28  0  0  1  0  0  0  0  0999 V2000
    7.9913  -17.2566   19.2000 N   0  0  0  0  0  0  0  0  0  0  0  0
    9.0250  -16.2452   19.1425 C   0  0  1  0  0  0  0  0  0  0  0  0
    8.7228  -15.1379   18.1642 C   0  0  0  0  0  0  0  0  0  0  0  0
    8.4742  -15.6497   16.8008 C   0  0  0  0  0  0  0  0  0  0  0  0
    9.0901  -14.9288   15.6643 C   0  0  0  0  0  0  0  0  0  0  0  0
    8.1140  -14.1374   14.8325 C   0  0  0  0  0  0  0  0  0  0  0  0
    8.8598  -13.6036   13.7008 N   0  0  0  0  0  0  0  0  0  0  0  0
    9.1176  -15.6223   20.4933 C   0  0  0  0  0  0  0  0  0  0  0  0
   10.2029  -15.0520   20.8661 O   0  0  0  0  0  0  0  0  0  0  0  0
    7.0699  -12.0606   28.4078 O   0  0  0  0  0  0  0  0  0  0  0  0
    7.0492  -12.6304   27.1502 C   0  0  0  0  0  0  0  0  0  0  0  0
    6.4585  -13.8466   26.8781 C   0  0  0  0  0  0  0  0  0  0  0  0
    6.4789  -14.3594   25.5737 C   0  0  0  0  0  0  0  0  0  0  0  0
    7.0850  -13.6619   24.5496 C   0  0  0  0  0  0  0  0  0  0  0  0
    7.1039  -14.1980   23.2150 C   0  0  0  0  0  0  0  0  0  0  0  0
    8.2531  -15.0027   22.7606 C   0  0  2  0  0  0  0  0  0  0  0  0
    8.0682  -15.6028   21.4466 N   0  0  0  0  0  0  0  0  0  0  0  0
    8.4067  -16.1645   23.7159 C   0  0  0  0  0  0  0  0  0  0  0  0
    7.7369  -17.2215   23.5990 O   0  0  0  0  0  0  0  0  0  0  0  0
    7.6617  -12.4580   24.8540 C   0  0  0  0  0  0  0  0  0  0  0  0
    7.6639  -11.9178   26.1232 C   0  0  0  0  0  0  0  0  0  0  0  0
    9.3415  -16.0475   24.7770 N   0  0  0  0  0  0  0  0  0  0  0  0
   10.1200  -17.1882   25.2066 C   0  0  1  0  0  0  0  0  0  0  0  0
   10.9336  -17.6566   24.0187 C   0  0  0  0  0  0  0  0  0  0  0  0
   11.9394  -19.1037   24.4508 S   0  0  0  0  0  0  0  0  0  0  0  0
   10.9463  -16.8831   26.3752 C   0  0  0  0  0  0  0  0  0  0  0  0
   11.0268  -17.6355   27.3664 O   0  0  0  0  0  0  0  0  0  0  0  0
   11.6786  -15.7068   26.3944 O   0  0  0  0  0  0  0  0  0  0  0  0
  2  1  1  1
  3  2  1  0
  4  3  1  0
  5  4  1  0
  5  6  1  0
  7  6  1  0
  8  2  1  0
  8  9  2  0
 10 11  1  0
 11 12  2  0
 12 13  1  0
 14 13  2  0
 14 15  1  0
 16 15  1  1
 16 17  1  0
 17  8  1  0
 18 16  1  0
 19 18  2  0
 20 14  1  0
 21 11  1  0
 21 20  2  0
 22 18  1  0
 23 26  1  0
 23 22  1  0
 23 24  1  6
 25 24  1  0
 26 28  1  0
 27 26  2  0
M  END
$$$$
