KYC.pdb
     RDKit          3D

 28 28  0  0  1  0  0  0  0  0999 V2000
    8.2893  -15.8379   18.8892 N   0  0  0  0  0  0  0  0  0  0  0  0
    8.7116  -14.4585   19.0055 C   0  0  1  0  0  0  0  0  0  0  0  0
    7.7384  -13.4826   18.3931 C   0  0  0  0  0  0  0  0  0  0  0  0
    7.9774  -13.2883   16.9482 C   0  0  0  0  0  0  0  0  0  0  0  0
    7.2681  -14.1767   16.0004 C   0  0  0  0  0  0  0  0  0  0  0  0
    7.6467  -13.9683   14.5566 C   0  0  0  0  0  0  0  0  0  0  0  0
    6.7823  -14.8330   13.7648 N   0  0  0  0  0  0  0  0  0  0  0  0
    8.7969  -14.1375   20.4585 C   0  0  0  0  0  0  0  0  0  0  0  0
    9.2878  -13.0179   20.8426 O   0  0  0  0  0  0  0  0  0  0  0  0
    6.9464  -12.0854   28.6876 O   0  0  0  0  0  0  0  0  0  0  0  0
    7.0290  -12.5381   27.3857 C   0  0  0  0  0  0  0  0  0  0  0  0
    7.6236  -11.8200   26.3693 C   0  0  0  0  0  0  0  0  0  0  0  0
    7.6680  -12.3479   25.0714 C   0  0  0  0  0  0  0  0  0  0  0  0
    7.1224  -13.5835   24.7921 C   0  0  0  0  0  0  0  0  0  0  0  0
    7.1697  -14.1152   23.4564 C   0  0  0  0  0  0  0  0  0  0  0  0
    8.4493  -14.5892   22.8972 C   0  0  2  0  0  0  0  0  0  0  0  0
    8.3663  -14.9963   21.5013 N   0  0  0  0  0  0  0  0  0  0  0  0
    8.8495  -15.8339   23.6565 C   0  0  0  0  0  0  0  0  0  0  0  0
    8.0059  -16.5746   24.2214 O   0  0  0  0  0  0  0  0  0  0  0  0
    6.5399  -14.2698   25.8239 C   0  0  0  0  0  0  0  0  0  0  0  0
    6.4750  -13.7870   27.1143 C   0  0  0  0  0  0  0  0  0  0  0  0
   10.2266  -16.1681   23.7276 N   0  0  0  0  0  0  0  0  0  0  0  0
   10.8397  -16.5152   24.9907 C   0  0  1  0  0  0  0  0  0  0  0  0
    9.7588  -17.1005   25.8749 C   0  0  0  0  0  0  0  0  0  0  0  0
   10.2634  -17.0788   27.6177 S   0  0  0  0  0  0  0  0  0  0  0  0
   11.9818  -17.4142   24.8207 C   0  0  0  0  0  0  0  0  0  0  0  0
   12.6663  -17.8322   25.7755 O   0  0  0  0  0  0  0  0  0  0  0  0
   12.3300  -17.8278   23.5447 O   0  0  0  0  0  0  0  0  0  0  0  0
  2  1  1  1
  3  2  1  0
  4  3  1  0
  5  4  1  0
  5  6  1  0
  7  6  1  0
  8  2  1  0
  8  9  2  0
 10 11  1  0
 11 12  2  0
 12 13  1  0
 14 13  2  0
 14 15  1  0
 16 15  1  1
 16 17  1  0
 17  8  1  0
 18 16  1  0
 19 18  2  0
 20 14  1  0
 21 11  1  0
 21 20  2  0
 22 18  1  0
 23 26  1  0
 23 22  1  0
 23 24  1  1
 25 24  1  0
 26 28  1  0
 27 26  2  0
M  END
$$$$
