SDI.pdb
     RDKit          3D

 23 22  0  0  1  0  0  0  0  0999 V2000
   18.5085  -14.2053  -15.2695 O   0  0  0  0  0  0  0  0  0  0  0  0
   17.6424  -14.1742  -16.3524 C   0  0  0  0  0  0  0  0  0  0  0  0
   18.3379  -14.2029  -17.6897 C   0  0  2  0  0  0  0  0  0  0  0  0
   19.0970  -15.4465  -17.8022 N   0  0  0  0  0  0  0  0  0  0  0  0
   19.2301  -13.0431  -17.9233 C   0  0  0  0  0  0  0  0  0  0  0  0
   20.4303  -13.2753  -18.2741 O   0  0  0  0  0  0  0  0  0  0  0  0
   18.8191  -11.6936  -17.7783 N   0  0  0  0  0  0  0  0  0  0  0  0
   19.6656  -10.5437  -17.9984 C   0  0  1  0  0  0  0  0  0  0  0  0
   18.8814   -9.3929  -18.5097 C   0  0  0  0  0  0  0  0  0  0  0  0
   19.7046   -8.2010  -18.7643 C   0  0  0  0  0  0  0  0  0  0  0  0
   20.8057   -8.3097  -19.3321 O   0  0  0  0  0  0  0  0  0  0  0  0
   20.4703  -10.2457  -16.7956 C   0  0  0  0  0  0  0  0  0  0  0  0
   19.9282  -10.4221  -15.6774 O   0  0  0  0  0  0  0  0  0  0  0  0
   19.2564   -6.9631  -18.3739 O   0  0  0  0  0  0  0  0  0  0  0  0
   26.2128  -10.5660  -14.7045 C   0  0  0  0  0  0  0  0  0  0  0  0
   24.8333   -9.9956  -14.5492 C   0  0  0  0  0  0  0  0  0  0  0  0
   23.9872  -10.1125  -15.7921 C   0  0  2  0  0  0  0  0  0  0  0  0
   24.6785   -9.5310  -16.9880 C   0  0  0  0  0  0  0  0  0  0  0  0
   22.5809   -9.5947  -15.6043 C   0  0  2  0  0  0  0  0  0  0  0  0
   21.7978   -9.7791  -16.8190 N   0  0  0  0  0  0  0  0  0  0  0  0
   22.6769   -8.1372  -15.3670 C   0  0  0  0  0  0  0  0  0  0  0  0
   23.0200   -7.6401  -14.1080 O   0  0  0  0  0  0  0  0  0  0  0  0
   22.4592   -7.3067  -16.2661 O   0  0  0  0  0  0  0  0  0  0  0  0
  2  1  1  0
  3  2  1  0
  3  4  1  1
  5  3  1  0
  6  5  2  0
  7  5  1  0
  8 12  1  0
  8  7  1  0
  8  9  1  1
 10 14  1  0
 10  9  1  0
 11 10  2  0
 12 20  1  0
 13 12  2  0
 16 15  1  0
 17 16  1  0
 17 18  1  6
 19 21  1  0
 19 17  1  0
 19 20  1  6
 21 22  1  0
 23 21  2  0
M  END
$$$$
