SDI.pdb
     RDKit          3D

 23 22  0  0  1  0  0  0  0  0999 V2000
   14.9374  -12.6010  -14.1510 O   0  0  0  0  0  0  0  0  0  0  0  0
   15.9523  -11.7032  -14.4474 C   0  0  0  0  0  0  0  0  0  0  0  0
   15.6921  -10.8748  -15.6798 C   0  0  2  0  0  0  0  0  0  0  0  0
   15.7517  -11.7419  -16.8546 N   0  0  0  0  0  0  0  0  0  0  0  0
   16.6278   -9.7375  -15.8430 C   0  0  0  0  0  0  0  0  0  0  0  0
   17.7684   -9.9725  -16.3540 O   0  0  0  0  0  0  0  0  0  0  0  0
   16.3208   -8.4063  -15.4623 N   0  0  0  0  0  0  0  0  0  0  0  0
   17.1878   -7.2684  -15.6638 C   0  0  1  0  0  0  0  0  0  0  0  0
   16.4306   -5.9962  -15.5686 C   0  0  0  0  0  0  0  0  0  0  0  0
   17.2687   -4.8078  -15.7887 C   0  0  0  0  0  0  0  0  0  0  0  0
   17.6555   -4.1264  -14.8230 O   0  0  0  0  0  0  0  0  0  0  0  0
   18.3670   -7.3428  -14.7766 C   0  0  0  0  0  0  0  0  0  0  0  0
   18.1672   -7.6217  -13.5693 O   0  0  0  0  0  0  0  0  0  0  0  0
   17.6259   -4.4487  -17.0651 O   0  0  0  0  0  0  0  0  0  0  0  0
   22.1649  -10.5705  -15.6667 C   0  0  0  0  0  0  0  0  0  0  0  0
   21.2140   -9.5935  -15.0392 C   0  0  0  0  0  0  0  0  0  0  0  0
   21.8240   -8.2395  -14.7768 C   0  0  2  0  0  0  0  0  0  0  0  0
   23.0456   -8.3413  -13.9145 C   0  0  0  0  0  0  0  0  0  0  0  0
   20.8236   -7.2237  -14.2783 C   0  0  2  0  0  0  0  0  0  0  0  0
   19.6934   -7.1226  -15.1921 N   0  0  0  0  0  0  0  0  0  0  0  0
   21.4984   -5.9067  -14.2753 C   0  0  0  0  0  0  0  0  0  0  0  0
   21.1694   -4.9338  -15.2215 O   0  0  0  0  0  0  0  0  0  0  0  0
   22.3739   -5.6159  -13.4419 O   0  0  0  0  0  0  0  0  0  0  0  0
  2  1  1  0
  3  2  1  0
  3  4  1  6
  5  3  1  0
  6  5  2  0
  7  5  1  0
  8 12  1  0
  8  7  1  0
  8  9  1  1
 10 14  1  0
 10  9  1  0
 11 10  2  0
 12 20  1  0
 13 12  2  0
 16 15  1  0
 17 16  1  0
 17 18  1  1
 19 21  1  0
 19 17  1  0
 19 20  1  6
 21 22  1  0
 23 21  2  0
M  END
$$$$
