SDI.pdb
     RDKit          3D

 23 22  0  0  1  0  0  0  0  0999 V2000
   13.5195  -11.0840  -13.9889 O   0  0  0  0  0  0  0  0  0  0  0  0
   14.4054  -12.1513  -13.9811 C   0  0  0  0  0  0  0  0  0  0  0  0
   15.7962  -11.7919  -14.4384 C   0  0  2  0  0  0  0  0  0  0  0  0
   16.6356  -12.9869  -14.3862 N   0  0  0  0  0  0  0  0  0  0  0  0
   16.4198  -10.7015  -13.6523 C   0  0  0  0  0  0  0  0  0  0  0  0
   16.8817  -10.9848  -12.5018 O   0  0  0  0  0  0  0  0  0  0  0  0
   16.5295   -9.3645  -14.1124 N   0  0  0  0  0  0  0  0  0  0  0  0
   17.1160   -8.2779  -13.3624 C   0  0  1  0  0  0  0  0  0  0  0  0
   18.0507   -7.4911  -14.2038 C   0  0  0  0  0  0  0  0  0  0  0  0
   18.7160   -6.4056  -13.4675 C   0  0  0  0  0  0  0  0  0  0  0  0
   18.3925   -5.2218  -13.6690 O   0  0  0  0  0  0  0  0  0  0  0  0
   16.0699   -7.4730  -12.6985 C   0  0  0  0  0  0  0  0  0  0  0  0
   15.0205   -7.2389  -13.3461 O   0  0  0  0  0  0  0  0  0  0  0  0
   19.6981   -6.6996  -12.5538 O   0  0  0  0  0  0  0  0  0  0  0  0
   15.0554   -7.5718   -7.1899 C   0  0  0  0  0  0  0  0  0  0  0  0
   15.5734   -6.8891   -8.4220 C   0  0  0  0  0  0  0  0  0  0  0  0
   14.5746   -6.8391   -9.5508 C   0  0  2  0  0  0  0  0  0  0  0  0
   13.9827   -8.1884   -9.8252 C   0  0  0  0  0  0  0  0  0  0  0  0
   15.1101   -6.1587  -10.7883 C   0  0  2  0  0  0  0  0  0  0  0  0
   16.1704   -6.9529  -11.3947 N   0  0  0  0  0  0  0  0  0  0  0  0
   15.7177   -4.8795  -10.3587 C   0  0  0  0  0  0  0  0  0  0  0  0
   17.1016   -4.6974  -10.3993 O   0  0  0  0  0  0  0  0  0  0  0  0
   15.0308   -3.9275   -9.9496 O   0  0  0  0  0  0  0  0  0  0  0  0
  2  1  1  0
  3  2  1  0
  3  4  1  1
  5  3  1  0
  6  5  2  0
  7  5  1  0
  8 12  1  0
  8  7  1  0
  8  9  1  6
 10 14  1  0
 10  9  1  0
 11 10  2  0
 12 20  1  0
 13 12  2  0
 16 15  1  0
 17 16  1  0
 17 18  1  6
 19 21  1  0
 19 17  1  0
 19 20  1  1
 21 22  1  0
 23 21  2  0
M  END
$$$$
