SDI.pdb
     RDKit          3D

 23 22  0  0  1  0  0  0  0  0999 V2000
   13.2921  -11.5922  -12.9440 O   0  0  0  0  0  0  0  0  0  0  0  0
   14.3945  -11.3037  -13.7348 C   0  0  0  0  0  0  0  0  0  0  0  0
   14.1482  -11.4818  -15.2114 C   0  0  2  0  0  0  0  0  0  0  0  0
   13.6950  -12.8497  -15.4544 N   0  0  0  0  0  0  0  0  0  0  0  0
   15.3303  -11.1839  -16.0538 C   0  0  0  0  0  0  0  0  0  0  0  0
   15.4083  -11.7460  -17.1919 O   0  0  0  0  0  0  0  0  0  0  0  0
   16.3746  -10.3084  -15.6612 N   0  0  0  0  0  0  0  0  0  0  0  0
   17.4067   -9.8071  -16.5391 C   0  0  1  0  0  0  0  0  0  0  0  0
   16.8229   -9.2262  -17.7731 C   0  0  0  0  0  0  0  0  0  0  0  0
   17.8307   -8.9186  -18.7991 C   0  0  0  0  0  0  0  0  0  0  0  0
   17.6562   -9.2788  -19.9766 O   0  0  0  0  0  0  0  0  0  0  0  0
   18.3199   -8.9008  -15.8127 C   0  0  0  0  0  0  0  0  0  0  0  0
   17.8083   -8.0892  -15.0035 O   0  0  0  0  0  0  0  0  0  0  0  0
   18.9690   -8.2311  -18.4565 O   0  0  0  0  0  0  0  0  0  0  0  0
   22.9667  -11.4053  -14.6684 C   0  0  0  0  0  0  0  0  0  0  0  0
   21.7202  -10.5813  -14.5270 C   0  0  0  0  0  0  0  0  0  0  0  0
   21.9053   -9.1344  -14.9098 C   0  0  2  0  0  0  0  0  0  0  0  0
   22.9705   -8.4766  -14.0859 C   0  0  0  0  0  0  0  0  0  0  0  0
   20.6101   -8.3581  -14.9421 C   0  0  2  0  0  0  0  0  0  0  0  0
   19.7187   -8.8861  -15.9665 N   0  0  0  0  0  0  0  0  0  0  0  0
   20.9400   -6.9681  -15.3283 C   0  0  0  0  0  0  0  0  0  0  0  0
   20.6633   -6.4998  -16.6144 O   0  0  0  0  0  0  0  0  0  0  0  0
   21.4695   -6.1710  -14.5347 O   0  0  0  0  0  0  0  0  0  0  0  0
  2  1  1  0
  3  2  1  0
  3  4  1  1
  5  3  1  0
  6  5  2  0
  7  5  1  0
  8 12  1  0
  8  7  1  0
  8  9  1  6
 10 14  1  0
 10  9  1  0
 11 10  2  0
 12 20  1  0
 13 12  2  0
 16 15  1  0
 17 16  1  0
 17 18  1  1
 19 21  1  0
 19 17  1  0
 19 20  1  6
 21 22  1  0
 23 21  2  0
M  END
$$$$
