SDI.pdb
     RDKit          3D

 23 22  0  0  1  0  0  0  0  0999 V2000
   24.3336  -13.5073  -16.1250 O   0  0  0  0  0  0  0  0  0  0  0  0
   23.6411  -12.3063  -16.1713 C   0  0  0  0  0  0  0  0  0  0  0  0
   22.6425  -12.2220  -17.2976 C   0  0  2  0  0  0  0  0  0  0  0  0
   23.3634  -12.1877  -18.5682 N   0  0  0  0  0  0  0  0  0  0  0  0
   21.7316  -11.0573  -17.2016 C   0  0  0  0  0  0  0  0  0  0  0  0
   22.0623   -9.9901  -17.8091 O   0  0  0  0  0  0  0  0  0  0  0  0
   20.5152  -11.0687  -16.4724 N   0  0  0  0  0  0  0  0  0  0  0  0
   19.5782   -9.9709  -16.4109 C   0  0  1  0  0  0  0  0  0  0  0  0
   18.2134  -10.4509  -16.0828 C   0  0  0  0  0  0  0  0  0  0  0  0
   17.2175   -9.3697  -16.0335 C   0  0  0  0  0  0  0  0  0  0  0  0
   16.3788   -9.3320  -15.1161 O   0  0  0  0  0  0  0  0  0  0  0  0
   20.0782   -8.9027  -15.5209 C   0  0  0  0  0  0  0  0  0  0  0  0
   20.6040   -9.2513  -14.4359 O   0  0  0  0  0  0  0  0  0  0  0  0
   17.2133   -8.3979  -17.0036 O   0  0  0  0  0  0  0  0  0  0  0  0
   23.8289   -4.3848  -15.4919 C   0  0  0  0  0  0  0  0  0  0  0  0
   22.5630   -4.8867  -14.8609 C   0  0  0  0  0  0  0  0  0  0  0  0
   21.8968   -5.9933  -15.6393 C   0  0  2  0  0  0  0  0  0  0  0  0
   21.6853   -5.6108  -17.0728 C   0  0  0  0  0  0  0  0  0  0  0  0
   20.6494   -6.5217  -14.9715 C   0  0  2  0  0  0  0  0  0  0  0  0
   20.0046   -7.5266  -15.8064 N   0  0  0  0  0  0  0  0  0  0  0  0
   19.7043   -5.3898  -14.8467 C   0  0  0  0  0  0  0  0  0  0  0  0
   18.6270   -5.2592  -15.7255 O   0  0  0  0  0  0  0  0  0  0  0  0
   19.8285   -4.5206  -13.9666 O   0  0  0  0  0  0  0  0  0  0  0  0
  2  1  1  0
  3  2  1  0
  3  4  1  6
  5  3  1  0
  6  5  2  0
  7  5  1  0
  8 12  1  0
  8  7  1  0
  8  9  1  1
 10 14  1  0
 10  9  1  0
 11 10  2  0
 12 20  1  0
 13 12  2  0
 16 15  1  0
 17 16  1  0
 17 18  1  6
 19 21  1  0
 19 17  1  0
 19 20  1  6
 21 22  1  0
 23 21  2  0
M  END
$$$$
