SDI.pdb
     RDKit          3D

 23 22  0  0  1  0  0  0  0  0999 V2000
   16.9571  -14.0245  -14.4135 O   0  0  0  0  0  0  0  0  0  0  0  0
   15.9716  -13.7623  -15.3537 C   0  0  0  0  0  0  0  0  0  0  0  0
   16.4965  -13.6014  -16.7577 C   0  0  2  0  0  0  0  0  0  0  0  0
   17.0784  -14.8689  -17.1940 N   0  0  0  0  0  0  0  0  0  0  0  0
   17.4909  -12.5125  -16.9020 C   0  0  0  0  0  0  0  0  0  0  0  0
   18.7164  -12.8347  -17.0105 O   0  0  0  0  0  0  0  0  0  0  0  0
   17.1510  -11.1358  -16.9263 N   0  0  0  0  0  0  0  0  0  0  0  0
   18.0875  -10.0570  -17.1414 C   0  0  1  0  0  0  0  0  0  0  0  0
   17.3951   -8.8358  -17.6209 C   0  0  0  0  0  0  0  0  0  0  0  0
   18.3186   -7.7378  -17.9442 C   0  0  0  0  0  0  0  0  0  0  0  0
   19.3607   -7.9637  -18.5843 O   0  0  0  0  0  0  0  0  0  0  0  0
   18.9321   -9.8486  -15.9471 C   0  0  0  0  0  0  0  0  0  0  0  0
   18.4036  -10.0343  -14.8240 O   0  0  0  0  0  0  0  0  0  0  0  0
   18.0299   -6.4582  -17.5382 O   0  0  0  0  0  0  0  0  0  0  0  0
   23.5521  -12.1995  -15.5511 C   0  0  0  0  0  0  0  0  0  0  0  0
   22.2523  -11.5041  -15.2695 C   0  0  0  0  0  0  0  0  0  0  0  0
   22.4089  -10.0420  -14.9349 C   0  0  2  0  0  0  0  0  0  0  0  0
   23.3379   -9.8363  -13.7769 C   0  0  0  0  0  0  0  0  0  0  0  0
   21.0895   -9.3239  -14.7775 C   0  0  2  0  0  0  0  0  0  0  0  0
   20.2835   -9.4573  -15.9838 N   0  0  0  0  0  0  0  0  0  0  0  0
   21.3893   -7.8841  -14.6129 C   0  0  0  0  0  0  0  0  0  0  0  0
   21.7300   -7.3643  -13.3624 O   0  0  0  0  0  0  0  0  0  0  0  0
   21.3509   -7.0890  -15.5678 O   0  0  0  0  0  0  0  0  0  0  0  0
  2  1  1  0
  3  2  1  0
  3  4  1  1
  5  3  1  0
  6  5  2  0
  7  5  1  0
  8 12  1  0
  8  7  1  0
  8  9  1  1
 10 14  1  0
 10  9  1  0
 11 10  2  0
 12 20  1  0
 13 12  2  0
 16 15  1  0
 17 16  1  0
 17 18  1  1
 19 21  1  0
 19 17  1  0
 19 20  1  6
 21 22  1  0
 23 21  2  0
M  END
$$$$
