APA.pdb
     RDKit          3D

 18 18  0  0  1  0  0  0  0  0999 V2000
   16.4012   -9.3996  -17.3549 C   0  0  0  0  0  0  0  0  0  0  0  0
   17.3356  -10.5626  -17.0585 C   0  0  2  0  0  0  0  0  0  0  0  0
   16.6699  -11.6042  -16.3156 N   0  0  0  0  0  0  0  0  0  0  0  0
   18.5506  -10.0464  -16.3972 C   0  0  0  0  0  0  0  0  0  0  0  0
   18.5672  -10.1421  -15.1348 O   0  0  0  0  0  0  0  0  0  0  0  0
   19.6608   -9.4696  -17.0681 N   0  0  0  0  0  0  0  0  0  0  0  0
   19.7725   -9.4923  -18.5373 C   0  0  0  0  0  0  0  0  0  0  0  0
   21.2711   -9.6226  -18.7522 C   0  0  0  0  0  0  0  0  0  0  0  0
   21.7798   -8.6774  -17.7008 C   0  0  0  0  0  0  0  0  0  0  0  0
   20.8110   -8.8030  -16.5682 C   0  0  1  0  0  0  0  0  0  0  0  0
   20.4711   -7.4452  -16.0049 C   0  0  0  0  0  0  0  0  0  0  0  0
   19.5377   -6.7552  -16.4586 O   0  0  0  0  0  0  0  0  0  0  0  0
   21.7332   -5.8055  -12.9148 C   0  0  0  0  0  0  0  0  0  0  0  0
   21.0244   -5.7258  -14.2511 C   0  0  2  0  0  0  0  0  0  0  0  0
   21.2685   -6.9893  -14.9292 N   0  0  0  0  0  0  0  0  0  0  0  0
   21.6999   -4.6652  -15.0630 C   0  0  0  0  0  0  0  0  0  0  0  0
   22.5682   -4.9632  -16.1043 O   0  0  0  0  0  0  0  0  0  0  0  0
   21.5023   -3.4309  -14.8274 O   0  0  0  0  0  0  0  0  0  0  0  0
  2  1  1  1
  3  2  1  0
  4  2  1  0
  5  4  2  0
  6  4  1  0
  6  7  1  0
  7  8  1  0
  9  8  1  0
 10 11  1  6
 10  9  1  0
 10  6  1  0
 11 12  2  0
 14 13  1  1
 14 16  1  0
 15 14  1  0
 15 11  1  0
 16 18  2  0
 16 17  1  0
M  END
$$$$
