APA.pdb
     RDKit          3D

 18 18  0  0  1  0  0  0  0  0999 V2000
   17.5534   -9.6270  -18.0238 C   0  0  0  0  0  0  0  0  0  0  0  0
   18.0934  -10.7141  -17.1075 C   0  0  2  0  0  0  0  0  0  0  0  0
   17.0406  -11.5705  -16.6195 N   0  0  0  0  0  0  0  0  0  0  0  0
   18.8919  -10.0865  -16.0357 C   0  0  0  0  0  0  0  0  0  0  0  0
   18.2447   -9.7421  -15.0035 O   0  0  0  0  0  0  0  0  0  0  0  0
   20.2913   -9.8542  -16.0920 N   0  0  0  0  0  0  0  0  0  0  0  0
   21.1041  -10.3062  -17.2350 C   0  0  0  0  0  0  0  0  0  0  0  0
   22.4277  -10.6614  -16.5786 C   0  0  0  0  0  0  0  0  0  0  0  0
   22.5662   -9.5204  -15.6109 C   0  0  0  0  0  0  0  0  0  0  0  0
   21.1682   -9.2080  -15.1805 C   0  0  1  0  0  0  0  0  0  0  0  0
   20.9419   -7.7166  -15.1470 C   0  0  0  0  0  0  0  0  0  0  0  0
   20.6542   -7.0677  -16.1715 O   0  0  0  0  0  0  0  0  0  0  0  0
   20.6649   -5.4635  -12.1915 C   0  0  0  0  0  0  0  0  0  0  0  0
   20.7975   -5.6714  -13.6860 C   0  0  2  0  0  0  0  0  0  0  0  0
   21.0729   -7.0853  -13.8880 N   0  0  0  0  0  0  0  0  0  0  0  0
   22.0130   -4.9275  -14.1437 C   0  0  0  0  0  0  0  0  0  0  0  0
   23.2247   -5.5586  -14.3900 O   0  0  0  0  0  0  0  0  0  0  0  0
   21.9834   -3.6692  -14.3279 O   0  0  0  0  0  0  0  0  0  0  0  0
  2  1  1  1
  3  2  1  0
  4  2  1  0
  5  4  2  0
  6  4  1  0
  6  7  1  0
  7  8  1  0
  9  8  1  0
 10 11  1  6
 10  9  1  0
 10  6  1  0
 11 12  2  0
 14 13  1  1
 14 16  1  0
 15 14  1  0
 15 11  1  0
 16 18  2  0
 16 17  1  0
M  END
$$$$
