APA.pdb
     RDKit          3D

 18 18  0  0  1  0  0  0  0  0999 V2000
   20.5635  -11.5497  -18.7220 C   0  0  0  0  0  0  0  0  0  0  0  0
   20.3552  -12.1638  -17.3463 C   0  0  2  0  0  0  0  0  0  0  0  0
   19.1127  -12.8922  -17.2711 N   0  0  0  0  0  0  0  0  0  0  0  0
   20.4857  -11.1069  -16.3234 C   0  0  0  0  0  0  0  0  0  0  0  0
   19.4497  -10.4059  -16.1279 O   0  0  0  0  0  0  0  0  0  0  0  0
   21.6613  -10.8394  -15.5739 N   0  0  0  0  0  0  0  0  0  0  0  0
   22.8969  -11.6177  -15.7709 C   0  0  0  0  0  0  0  0  0  0  0  0
   23.4880  -11.6583  -14.3716 C   0  0  0  0  0  0  0  0  0  0  0  0
   23.2262  -10.2478  -13.9248 C   0  0  0  0  0  0  0  0  0  0  0  0
   21.9266   -9.8755  -14.5650 C   0  0  1  0  0  0  0  0  0  0  0  0
   21.9918   -8.4776  -15.1288 C   0  0  0  0  0  0  0  0  0  0  0  0
   22.6022   -8.2173  -16.1839 O   0  0  0  0  0  0  0  0  0  0  0  0
   19.7831   -5.6676  -14.6462 C   0  0  0  0  0  0  0  0  0  0  0  0
   21.2192   -6.0959  -14.8665 C   0  0  2  0  0  0  0  0  0  0  0  0
   21.3220   -7.4690  -14.3975 N   0  0  0  0  0  0  0  0  0  0  0  0
   22.0844   -5.2691  -13.9675 C   0  0  0  0  0  0  0  0  0  0  0  0
   22.5538   -5.7368  -12.7476 O   0  0  0  0  0  0  0  0  0  0  0  0
   22.4290   -4.0880  -14.2904 O   0  0  0  0  0  0  0  0  0  0  0  0
  2  1  1  6
  3  2  1  0
  4  2  1  0
  5  4  2  0
  6  4  1  0
  6  7  1  0
  7  8  1  0
  9  8  1  0
 10 11  1  6
 10  9  1  0
 10  6  1  0
 11 12  2  0
 14 13  1  1
 14 16  1  0
 15 14  1  0
 15 11  1  0
 16 18  2  0
 16 17  1  0
M  END
$$$$
