APA.pdb
     RDKit          3D

 18 18  0  0  1  0  0  0  0  0999 V2000
   20.7286  -10.9706  -19.1243 C   0  0  0  0  0  0  0  0  0  0  0  0
   20.6283  -11.8260  -17.8707 C   0  0  2  0  0  0  0  0  0  0  0  0
   19.4486  -12.6553  -17.8852 N   0  0  0  0  0  0  0  0  0  0  0  0
   20.7248  -10.9526  -16.6841 C   0  0  0  0  0  0  0  0  0  0  0  0
   19.6211  -10.5509  -16.2112 O   0  0  0  0  0  0  0  0  0  0  0  0
   21.9373  -10.5508  -16.0647 N   0  0  0  0  0  0  0  0  0  0  0  0
   23.2367  -11.1129  -16.4731 C   0  0  0  0  0  0  0  0  0  0  0  0
   24.0081  -11.1456  -15.1643 C   0  0  0  0  0  0  0  0  0  0  0  0
   23.6033   -9.8232  -14.5770 C   0  0  0  0  0  0  0  0  0  0  0  0
   22.1896   -9.6204  -15.0216 C   0  0  1  0  0  0  0  0  0  0  0  0
   21.9728   -8.1978  -15.4750 C   0  0  0  0  0  0  0  0  0  0  0  0
   22.3289   -7.8006  -16.6015 O   0  0  0  0  0  0  0  0  0  0  0  0
   19.7655   -5.6017  -14.1005 C   0  0  0  0  0  0  0  0  0  0  0  0
   21.0244   -5.9457  -14.8693 C   0  0  2  0  0  0  0  0  0  0  0  0
   21.3412   -7.3298  -14.5538 N   0  0  0  0  0  0  0  0  0  0  0  0
   22.1384   -5.1133  -14.3158 C   0  0  0  0  0  0  0  0  0  0  0  0
   23.0879   -5.6245  -13.4416 O   0  0  0  0  0  0  0  0  0  0  0  0
   22.2610   -3.8865  -14.6290 O   0  0  0  0  0  0  0  0  0  0  0  0
  2  1  1  6
  3  2  1  0
  4  2  1  0
  5  4  2  0
  6  4  1  0
  6  7  1  0
  7  8  1  0
  9  8  1  0
 10 11  1  6
 10  9  1  0
 10  6  1  0
 11 12  2  0
 14 13  1  1
 14 16  1  0
 15 14  1  0
 15 11  1  0
 16 18  2  0
 16 17  1  0
M  END
$$$$
