APA.pdb
     RDKit          3D

 18 18  0  0  1  0  0  0  0  0999 V2000
   14.2164  -10.8108  -14.4406 C   0  0  0  0  0  0  0  0  0  0  0  0
   15.3684  -11.5281  -13.7539 C   0  0  2  0  0  0  0  0  0  0  0  0
   15.0755  -12.9242  -13.5418 N   0  0  0  0  0  0  0  0  0  0  0  0
   15.7185  -10.8011  -12.5173 C   0  0  0  0  0  0  0  0  0  0  0  0
   15.0888  -11.1573  -11.4782 O   0  0  0  0  0  0  0  0  0  0  0  0
   16.6835   -9.7638  -12.4275 N   0  0  0  0  0  0  0  0  0  0  0  0
   17.4455   -9.3135  -13.6056 C   0  0  0  0  0  0  0  0  0  0  0  0
   18.7938   -8.9493  -13.0070 C   0  0  0  0  0  0  0  0  0  0  0  0
   18.3544   -8.2596  -11.7465 C   0  0  0  0  0  0  0  0  0  0  0  0
   17.1165   -8.9840  -11.3221 C   0  0  1  0  0  0  0  0  0  0  0  0
   16.0557   -8.0089  -10.8746 C   0  0  0  0  0  0  0  0  0  0  0  0
   15.2598   -7.4827  -11.6764 O   0  0  0  0  0  0  0  0  0  0  0  0
   15.0877   -7.0056   -7.4123 C   0  0  0  0  0  0  0  0  0  0  0  0
   15.0288   -6.8102   -8.9132 C   0  0  2  0  0  0  0  0  0  0  0  0
   16.0073   -7.7182   -9.4911 N   0  0  0  0  0  0  0  0  0  0  0  0
   15.5027   -5.4220   -9.2111 C   0  0  0  0  0  0  0  0  0  0  0  0
   14.6776   -4.3116   -9.0957 O   0  0  0  0  0  0  0  0  0  0  0  0
   16.6976   -5.2015   -9.5874 O   0  0  0  0  0  0  0  0  0  0  0  0
  2  1  1  1
  3  2  1  0
  4  2  1  0
  5  4  2  0
  6  4  1  0
  6  7  1  0
  7  8  1  0
  9  8  1  0
 10 11  1  6
 10  9  1  0
 10  6  1  0
 11 12  2  0
 14 13  1  1
 14 16  1  0
 15 14  1  0
 15 11  1  0
 16 18  2  0
 16 17  1  0
M  END
$$$$
