KYV.pdb
     RDKit          3D

 29 29  0  0  1  0  0  0  0  0999 V2000
   28.4088  -22.5829  -17.5801 N   0  0  0  0  0  0  0  0  0  0  0  0
   27.8034  -21.3431  -17.2018 C   0  0  1  0  0  0  0  0  0  0  0  0
   26.9646  -20.8287  -18.3453 C   0  0  0  0  0  0  0  0  0  0  0  0
   27.7879  -19.9317  -19.2370 C   0  0  0  0  0  0  0  0  0  0  0  0
   28.5189  -20.6697  -20.3122 C   0  0  0  0  0  0  0  0  0  0  0  0
   29.2344  -19.7217  -21.2596 C   0  0  0  0  0  0  0  0  0  0  0  0
   30.3220  -19.0245  -20.6334 N   0  0  0  0  0  0  0  0  0  0  0  0
   27.0028  -21.5300  -15.9678 C   0  0  0  0  0  0  0  0  0  0  0  0
   26.0363  -22.3193  -15.9787 O   0  0  0  0  0  0  0  0  0  0  0  0
   24.3984  -20.6075   -7.5369 O   0  0  0  0  0  0  0  0  0  0  0  0
   25.1025  -20.5294   -8.7270 C   0  0  0  0  0  0  0  0  0  0  0  0
   25.8773  -21.5821   -9.1626 C   0  0  0  0  0  0  0  0  0  0  0  0
   26.5715  -21.4845  -10.3517 C   0  0  0  0  0  0  0  0  0  0  0  0
   26.5328  -20.3650  -11.1489 C   0  0  0  0  0  0  0  0  0  0  0  0
   27.2895  -20.2910  -12.4205 C   0  0  0  0  0  0  0  0  0  0  0  0
   26.5216  -20.9527  -13.5563 C   0  0  2  0  0  0  0  0  0  0  0  0
   27.2943  -20.8379  -14.7553 N   0  0  0  0  0  0  0  0  0  0  0  0
   25.1655  -20.3503  -13.6963 C   0  0  0  0  0  0  0  0  0  0  0  0
   25.0055  -19.1644  -14.1137 O   0  0  0  0  0  0  0  0  0  0  0  0
   25.7456  -19.3026  -10.7008 C   0  0  0  0  0  0  0  0  0  0  0  0
   25.0447  -19.3818   -9.5150 C   0  0  0  0  0  0  0  0  0  0  0  0
   20.5591  -20.3867  -14.8875 C   0  0  0  0  0  0  0  0  0  0  0  0
   21.9777  -20.9518  -14.7858 C   0  0  2  0  0  0  0  0  0  0  0  0
   21.8265  -22.4551  -14.7453 C   0  0  0  0  0  0  0  0  0  0  0  0
   22.6569  -20.5102  -13.5268 C   0  0  2  0  0  0  0  0  0  0  0  0
   23.9796  -21.0644  -13.3725 N   0  0  0  0  0  0  0  0  0  0  0  0
   21.8112  -20.9147  -12.3796 C   0  0  0  0  0  0  0  0  0  0  0  0
   20.7164  -20.3259  -12.2069 O   0  0  0  0  0  0  0  0  0  0  0  0
   22.1657  -21.9096  -11.4867 O   0  0  0  0  0  0  0  0  0  0  0  0
  2  1  1  6
  3  2  1  0
  4  3  1  0
  5  4  1  0
  6  5  1  0
  7  6  1  0
  8  9  2  0
  8  2  1  0
 10 11  1  0
 11 12  2  0
 12 13  1  0
 14 13  2  0
 14 15  1  0
 16 15  1  1
 16 17  1  0
 17  8  1  0
 18 26  1  0
 18 16  1  0
 19 18  2  0
 20 14  1  0
 21 11  1  0
 21 20  2  0
 23 22  1  1
 23 25  1  0
 23 24  1  0
 25 27  1  0
 25 26  1  1
 27 29  1  0
 28 27  2  0
M  END
$$$$
