KYV.pdb
     RDKit          3D

 29 29  0  0  1  0  0  0  0  0999 V2000
   27.5479  -19.6437  -18.8266 N   0  0  0  0  0  0  0  0  0  0  0  0
   27.4165  -20.4352  -17.6422 C   0  0  1  0  0  0  0  0  0  0  0  0
   28.7790  -20.6462  -17.0300 C   0  0  0  0  0  0  0  0  0  0  0  0
   29.4280  -21.8800  -17.6082 C   0  0  0  0  0  0  0  0  0  0  0  0
   28.9403  -23.1526  -16.9939 C   0  0  0  0  0  0  0  0  0  0  0  0
   29.6421  -24.3661  -17.5798 C   0  0  0  0  0  0  0  0  0  0  0  0
   29.1868  -25.6020  -17.0089 N   0  0  0  0  0  0  0  0  0  0  0  0
   26.4810  -19.7771  -16.6985 C   0  0  0  0  0  0  0  0  0  0  0  0
   26.6661  -18.5833  -16.3855 O   0  0  0  0  0  0  0  0  0  0  0  0
   22.8822  -15.2350  -19.3154 O   0  0  0  0  0  0  0  0  0  0  0  0
   22.9329  -16.3362  -18.4770 C   0  0  0  0  0  0  0  0  0  0  0  0
   22.6108  -16.2262  -17.1419 C   0  0  0  0  0  0  0  0  0  0  0  0
   22.6677  -17.3358  -16.3229 C   0  0  0  0  0  0  0  0  0  0  0  0
   23.0378  -18.5800  -16.7761 C   0  0  0  0  0  0  0  0  0  0  0  0
   23.0890  -19.7521  -15.8714 C   0  0  0  0  0  0  0  0  0  0  0  0
   24.4501  -19.8687  -15.1995 C   0  0  2  0  0  0  0  0  0  0  0  0
   25.3661  -20.4588  -16.1271 N   0  0  0  0  0  0  0  0  0  0  0  0
   24.3470  -20.6466  -13.9323 C   0  0  0  0  0  0  0  0  0  0  0  0
   24.1716  -21.9018  -13.9360 O   0  0  0  0  0  0  0  0  0  0  0  0
   23.3627  -18.6834  -18.1299 C   0  0  0  0  0  0  0  0  0  0  0  0
   23.3118  -17.5855  -18.9640 C   0  0  0  0  0  0  0  0  0  0  0  0
   26.6772  -20.2246  -10.6567 C   0  0  0  0  0  0  0  0  0  0  0  0
   25.1850  -20.1735  -10.3212 C   0  0  2  0  0  0  0  0  0  0  0  0
   25.0076  -21.0133   -9.0771 C   0  0  0  0  0  0  0  0  0  0  0  0
   24.3542  -20.7675  -11.4158 C   0  0  2  0  0  0  0  0  0  0  0  0
   24.4386  -20.0319  -12.6536 N   0  0  0  0  0  0  0  0  0  0  0  0
   22.9463  -20.8085  -10.9565 C   0  0  0  0  0  0  0  0  0  0  0  0
   22.2137  -19.8154  -11.1850 O   0  0  0  0  0  0  0  0  0  0  0  0
   22.3954  -21.8865  -10.2876 O   0  0  0  0  0  0  0  0  0  0  0  0
  2  1  1  6
  3  2  1  0
  4  3  1  0
  5  4  1  0
  6  5  1  0
  7  6  1  0
  8  9  2  0
  8  2  1  0
 10 11  1  0
 11 12  2  0
 12 13  1  0
 14 13  2  0
 14 15  1  0
 16 15  1  6
 16 17  1  0
 17  8  1  0
 18 26  1  0
 18 16  1  0
 19 18  2  0
 20 14  1  0
 21 11  1  0
 21 20  2  0
 23 22  1  6
 23 25  1  0
 23 24  1  0
 25 27  1  0
 25 26  1  6
 27 29  1  0
 28 27  2  0
M  END
$$$$
