KYV.pdb
     RDKit          3D

 29 29  0  0  1  0  0  0  0  0999 V2000
   24.7615  -22.7335  -13.4662 N   0  0  0  0  0  0  0  0  0  0  0  0
   25.0391  -21.3463  -13.2536 C   0  0  1  0  0  0  0  0  0  0  0  0
   26.4592  -21.1907  -12.7690 C   0  0  0  0  0  0  0  0  0  0  0  0
   26.4808  -20.5242  -11.4150 C   0  0  0  0  0  0  0  0  0  0  0  0
   25.4619  -21.0695  -10.4667 C   0  0  0  0  0  0  0  0  0  0  0  0
   25.4398  -20.2974   -9.1585 C   0  0  0  0  0  0  0  0  0  0  0  0
   24.3990  -20.7344   -8.2716 N   0  0  0  0  0  0  0  0  0  0  0  0
   24.7939  -20.5868  -14.5033 C   0  0  0  0  0  0  0  0  0  0  0  0
   24.7489  -21.1964  -15.5913 O   0  0  0  0  0  0  0  0  0  0  0  0
   18.3587  -20.4849  -14.6571 O   0  0  0  0  0  0  0  0  0  0  0  0
   19.5228  -19.7557  -14.8347 C   0  0  0  0  0  0  0  0  0  0  0  0
   20.0224  -19.5140  -16.0957 C   0  0  0  0  0  0  0  0  0  0  0  0
   21.1841  -18.7850  -16.2514 C   0  0  0  0  0  0  0  0  0  0  0  0
   21.8913  -18.2717  -15.1899 C   0  0  0  0  0  0  0  0  0  0  0  0
   23.1356  -17.4928  -15.3901 C   0  0  0  0  0  0  0  0  0  0  0  0
   24.3149  -18.4082  -15.6883 C   0  0  2  0  0  0  0  0  0  0  0  0
   24.6051  -19.1732  -14.5142 N   0  0  0  0  0  0  0  0  0  0  0  0
   25.4898  -17.6185  -16.1548 C   0  0  0  0  0  0  0  0  0  0  0  0
   25.8238  -16.5314  -15.5954 O   0  0  0  0  0  0  0  0  0  0  0  0
   21.3787  -18.5208  -13.9155 C   0  0  0  0  0  0  0  0  0  0  0  0
   20.2190  -19.2474  -13.7400 C   0  0  0  0  0  0  0  0  0  0  0  0
   28.7214  -19.4293  -18.2024 C   0  0  0  0  0  0  0  0  0  0  0  0
   28.7434  -18.0942  -17.4547 C   0  0  2  0  0  0  0  0  0  0  0  0
   28.8470  -18.4392  -15.9868 C   0  0  0  0  0  0  0  0  0  0  0  0
   27.4796  -17.3213  -17.6713 C   0  0  2  0  0  0  0  0  0  0  0  0
   26.2999  -18.0343  -17.2466 N   0  0  0  0  0  0  0  0  0  0  0  0
   27.3753  -17.0019  -19.1142 C   0  0  0  0  0  0  0  0  0  0  0  0
   26.4080  -17.4709  -19.7620 O   0  0  0  0  0  0  0  0  0  0  0  0
   28.2900  -16.2119  -19.7865 O   0  0  0  0  0  0  0  0  0  0  0  0
  2  1  1  6
  3  2  1  0
  4  3  1  0
  5  4  1  0
  6  5  1  0
  7  6  1  0
  8  9  2  0
  8  2  1  0
 10 11  1  0
 11 12  2  0
 12 13  1  0
 14 13  2  0
 14 15  1  0
 16 15  1  1
 16 17  1  0
 17  8  1  0
 18 26  1  0
 18 16  1  0
 19 18  2  0
 20 14  1  0
 21 11  1  0
 21 20  2  0
 23 22  1  6
 23 25  1  0
 23 24  1  0
 25 27  1  0
 25 26  1  6
 27 29  1  0
 28 27  2  0
M  END
$$$$
