KYV.pdb
     RDKit          3D

 29 29  0  0  1  0  0  0  0  0999 V2000
   21.5256  -16.5809  -20.6840 N   0  0  0  0  0  0  0  0  0  0  0  0
   20.3743  -15.9559  -21.2588 C   0  0  1  0  0  0  0  0  0  0  0  0
   19.5774  -16.9848  -22.0217 C   0  0  0  0  0  0  0  0  0  0  0  0
   20.1794  -17.2065  -23.3878 C   0  0  0  0  0  0  0  0  0  0  0  0
   19.3807  -18.1329  -24.2472 C   0  0  0  0  0  0  0  0  0  0  0  0
   20.0539  -18.3797  -25.5867 C   0  0  0  0  0  0  0  0  0  0  0  0
   21.2718  -19.1303  -25.4677 N   0  0  0  0  0  0  0  0  0  0  0  0
   19.5691  -15.3089  -20.1949 C   0  0  0  0  0  0  0  0  0  0  0  0
   18.3944  -14.9658  -20.4393 O   0  0  0  0  0  0  0  0  0  0  0  0
   18.4102  -20.6305  -16.2470 O   0  0  0  0  0  0  0  0  0  0  0  0
   18.7500  -19.2894  -16.3112 C   0  0  0  0  0  0  0  0  0  0  0  0
   17.8305  -18.3097  -16.0065 C   0  0  0  0  0  0  0  0  0  0  0  0
   18.1890  -16.9786  -16.0767 C   0  0  0  0  0  0  0  0  0  0  0  0
   19.4471  -16.5627  -16.4438 C   0  0  0  0  0  0  0  0  0  0  0  0
   19.8011  -15.1255  -16.5095 C   0  0  0  0  0  0  0  0  0  0  0  0
   19.3252  -14.5015  -17.8140 C   0  0  2  0  0  0  0  0  0  0  0  0
   20.0867  -15.0595  -18.8895 N   0  0  0  0  0  0  0  0  0  0  0  0
   19.4304  -13.0159  -17.7563 C   0  0  0  0  0  0  0  0  0  0  0  0
   20.5539  -12.4295  -17.7486 O   0  0  0  0  0  0  0  0  0  0  0  0
   20.3731  -17.5613  -16.7510 C   0  0  0  0  0  0  0  0  0  0  0  0
   20.0332  -18.8969  -16.6866 C   0  0  0  0  0  0  0  0  0  0  0  0
   16.2640  -10.6009  -19.1148 C   0  0  0  0  0  0  0  0  0  0  0  0
   17.7203  -10.1519  -18.9751 C   0  0  2  0  0  0  0  0  0  0  0  0
   18.4402  -10.6844  -20.1928 C   0  0  0  0  0  0  0  0  0  0  0  0
   18.3610  -10.7346  -17.7539 C   0  0  2  0  0  0  0  0  0  0  0  0
   18.2856  -12.1743  -17.7070 N   0  0  0  0  0  0  0  0  0  0  0  0
   17.6908  -10.1624  -16.5631 C   0  0  0  0  0  0  0  0  0  0  0  0
   17.8529   -8.9430  -16.3140 O   0  0  0  0  0  0  0  0  0  0  0  0
   16.8936  -10.9031  -15.7094 O   0  0  0  0  0  0  0  0  0  0  0  0
  2  1  1  1
  3  2  1  0
  4  3  1  0
  5  4  1  0
  6  5  1  0
  7  6  1  0
  8  9  2  0
  8  2  1  0
 10 11  1  0
 11 12  2  0
 12 13  1  0
 14 13  2  0
 14 15  1  0
 16 15  1  1
 16 17  1  0
 17  8  1  0
 18 26  1  0
 18 16  1  0
 19 18  2  0
 20 14  1  0
 21 11  1  0
 21 20  2  0
 23 22  1  6
 23 25  1  0
 23 24  1  0
 25 27  1  0
 25 26  1  6
 27 29  1  0
 28 27  2  0
M  END
$$$$
