KYV.pdb
     RDKit          3D

 29 29  0  0  1  0  0  0  0  0999 V2000
   33.9475  -38.2032   -4.5746 N   0  0  0  0  0  0  0  0  0  0  0  0
   32.6625  -38.5168   -5.1197 C   0  0  1  0  0  0  0  0  0  0  0  0
   32.3396  -39.9626   -4.8347 C   0  0  0  0  0  0  0  0  0  0  0  0
   32.4722  -40.7868   -6.0921 C   0  0  0  0  0  0  0  0  0  0  0  0
   32.0852  -42.2191   -5.9087 C   0  0  0  0  0  0  0  0  0  0  0  0
   32.3183  -43.0316   -7.1711 C   0  0  0  0  0  0  0  0  0  0  0  0
   32.1018  -44.4373   -6.9763 N   0  0  0  0  0  0  0  0  0  0  0  0
   31.6407  -37.6001   -4.5590 C   0  0  0  0  0  0  0  0  0  0  0  0
   31.9194  -36.9133   -3.5551 O   0  0  0  0  0  0  0  0  0  0  0  0
   24.5005  -32.4267   -4.0877 O   0  0  0  0  0  0  0  0  0  0  0  0
   25.5168  -33.2695   -4.5060 C   0  0  0  0  0  0  0  0  0  0  0  0
   25.2352  -34.4522   -5.1544 C   0  0  0  0  0  0  0  0  0  0  0  0
   26.2624  -35.2784   -5.5634 C   0  0  0  0  0  0  0  0  0  0  0  0
   27.5883  -34.9803   -5.3549 C   0  0  0  0  0  0  0  0  0  0  0  0
   28.6685  -35.8884   -5.8062 C   0  0  0  0  0  0  0  0  0  0  0  0
   29.3275  -36.5878   -4.6255 C   0  0  2  0  0  0  0  0  0  0  0  0
   30.3383  -37.4689   -5.1253 N   0  0  0  0  0  0  0  0  0  0  0  0
   28.3108  -37.3012   -3.8016 C   0  0  0  0  0  0  0  0  0  0  0  0
   27.7123  -38.3322   -4.2315 O   0  0  0  0  0  0  0  0  0  0  0  0
   27.8655  -33.7803   -4.6974 C   0  0  0  0  0  0  0  0  0  0  0  0
   26.8522  -32.9416   -4.2811 C   0  0  0  0  0  0  0  0  0  0  0  0
   27.5883  -36.1785    0.3355 C   0  0  0  0  0  0  0  0  0  0  0  0
   27.4056  -37.5946   -0.2154 C   0  0  2  0  0  0  0  0  0  0  0  0
   28.7540  -38.2668   -0.0951 C   0  0  0  0  0  0  0  0  0  0  0  0
   27.0127  -37.5766   -1.6599 C   0  0  2  0  0  0  0  0  0  0  0  0
   27.9545  -36.8711   -2.4942 N   0  0  0  0  0  0  0  0  0  0  0  0
   25.6790  -36.9407   -1.7678 C   0  0  0  0  0  0  0  0  0  0  0  0
   25.6206  -35.7139   -2.0261 O   0  0  0  0  0  0  0  0  0  0  0  0
   24.4918  -37.6298   -1.5987 O   0  0  0  0  0  0  0  0  0  0  0  0
  2  1  1  1
  3  2  1  0
  4  3  1  0
  5  4  1  0
  6  5  1  0
  7  6  1  0
  8  9  2  0
  8  2  1  0
 10 11  1  0
 11 12  2  0
 12 13  1  0
 14 13  2  0
 14 15  1  0
 16 15  1  6
 16 17  1  0
 17  8  1  0
 18 26  1  0
 18 16  1  0
 19 18  2  0
 20 14  1  0
 21 11  1  0
 21 20  2  0
 23 22  1  6
 23 25  1  0
 23 24  1  0
 25 27  1  0
 25 26  1  6
 27 29  1  0
 28 27  2  0
M  END
$$$$
