KYV.pdb
     RDKit          3D

 29 29  0  0  1  0  0  0  0  0999 V2000
   28.6082  -23.4072  -17.6126 N   0  0  0  0  0  0  0  0  0  0  0  0
   28.4585  -22.1286  -16.9886 C   0  0  1  0  0  0  0  0  0  0  0  0
   28.0637  -21.1096  -18.0286 C   0  0  0  0  0  0  0  0  0  0  0  0
   29.2606  -20.7198  -18.8612 C   0  0  0  0  0  0  0  0  0  0  0  0
   29.4875  -21.6179  -20.0346 C   0  0  0  0  0  0  0  0  0  0  0  0
   30.6592  -21.1520  -20.8822 C   0  0  0  0  0  0  0  0  0  0  0  0
   30.8972  -21.9991  -22.0166 N   0  0  0  0  0  0  0  0  0  0  0  0
   27.4628  -22.2167  -15.8934 C   0  0  0  0  0  0  0  0  0  0  0  0
   26.6467  -23.1607  -15.8824 O   0  0  0  0  0  0  0  0  0  0  0  0
   23.3026  -20.5641   -8.2585 O   0  0  0  0  0  0  0  0  0  0  0  0
   24.1938  -20.5477   -9.3186 C   0  0  0  0  0  0  0  0  0  0  0  0
   25.3270  -21.3311   -9.3043 C   0  0  0  0  0  0  0  0  0  0  0  0
   26.2027  -21.3003  -10.3707 C   0  0  0  0  0  0  0  0  0  0  0  0
   26.0032  -20.5101  -11.4780 C   0  0  0  0  0  0  0  0  0  0  0  0
   26.9623  -20.4994  -12.6072 C   0  0  0  0  0  0  0  0  0  0  0  0
   26.4126  -21.2654  -13.8024 C   0  0  2  0  0  0  0  0  0  0  0  0
   27.3980  -21.2572  -14.8402 N   0  0  0  0  0  0  0  0  0  0  0  0
   25.1148  -20.6840  -14.2488 C   0  0  0  0  0  0  0  0  0  0  0  0
   25.0467  -19.5270  -14.7615 O   0  0  0  0  0  0  0  0  0  0  0  0
   24.8527  -19.7192  -11.4851 C   0  0  0  0  0  0  0  0  0  0  0  0
   23.9658  -19.7365  -10.4284 C   0  0  0  0  0  0  0  0  0  0  0  0
   20.6680  -20.9156  -16.0953 C   0  0  0  0  0  0  0  0  0  0  0  0
   22.0619  -21.4553  -15.7668 C   0  0  2  0  0  0  0  0  0  0  0  0
   21.8891  -22.9367  -15.5217 C   0  0  0  0  0  0  0  0  0  0  0  0
   22.6147  -20.8310  -14.5234 C   0  0  2  0  0  0  0  0  0  0  0  0
   23.8851  -21.3872  -14.1271 N   0  0  0  0  0  0  0  0  0  0  0  0
   21.6280  -21.0190  -13.4344 C   0  0  0  0  0  0  0  0  0  0  0  0
   21.7568  -22.0101  -12.6753 O   0  0  0  0  0  0  0  0  0  0  0  0
   20.5697  -20.1573  -13.2096 O   0  0  0  0  0  0  0  0  0  0  0  0
  2  1  1  6
  3  2  1  0
  4  3  1  0
  5  4  1  0
  6  5  1  0
  7  6  1  0
  8  9  2  0
  8  2  1  0
 10 11  1  0
 11 12  2  0
 12 13  1  0
 14 13  2  0
 14 15  1  0
 16 15  1  1
 16 17  1  0
 17  8  1  0
 18 26  1  0
 18 16  1  0
 19 18  2  0
 20 14  1  0
 21 11  1  0
 21 20  2  0
 23 22  1  1
 23 25  1  0
 23 24  1  0
 25 27  1  0
 25 26  1  1
 27 29  1  0
 28 27  2  0
M  END
$$$$
