KYV.pdb
     RDKit          3D

 29 29  0  0  1  0  0  0  0  0999 V2000
   17.9039  -14.7689  -19.4090 N   0  0  0  0  0  0  0  0  0  0  0  0
   18.1345  -14.3753  -18.0530 C   0  0  1  0  0  0  0  0  0  0  0  0
   18.9096  -15.4585  -17.3447 C   0  0  0  0  0  0  0  0  0  0  0  0
   17.9778  -16.3230  -16.5310 C   0  0  0  0  0  0  0  0  0  0  0  0
   17.1749  -17.2751  -17.3577 C   0  0  0  0  0  0  0  0  0  0  0  0
   16.2785  -18.1501  -16.4980 C   0  0  0  0  0  0  0  0  0  0  0  0
   15.3320  -18.9050  -17.2695 N   0  0  0  0  0  0  0  0  0  0  0  0
   18.8450  -13.0742  -18.0207 C   0  0  0  0  0  0  0  0  0  0  0  0
   19.9019  -12.9374  -18.6699 O   0  0  0  0  0  0  0  0  0  0  0  0
   17.1316   -9.3733  -23.2161 O   0  0  0  0  0  0  0  0  0  0  0  0
   17.3350   -9.4325  -21.8474 C   0  0  0  0  0  0  0  0  0  0  0  0
   16.5012  -10.1730  -21.0381 C   0  0  0  0  0  0  0  0  0  0  0  0
   16.7209  -10.2191  -19.6762 C   0  0  0  0  0  0  0  0  0  0  0  0
   17.7536   -9.5494  -19.0635 C   0  0  0  0  0  0  0  0  0  0  0  0
   17.9630   -9.6189  -17.5985 C   0  0  0  0  0  0  0  0  0  0  0  0
   18.9980  -10.6765  -17.2410 C   0  0  2  0  0  0  0  0  0  0  0  0
   18.3657  -11.9600  -17.2704 N   0  0  0  0  0  0  0  0  0  0  0  0
   19.6182  -10.3806  -15.9184 C   0  0  0  0  0  0  0  0  0  0  0  0
   19.0302  -10.6615  -14.8314 O   0  0  0  0  0  0  0  0  0  0  0  0
   18.5940   -8.8014  -19.8901 C   0  0  0  0  0  0  0  0  0  0  0  0
   18.3903   -8.7433  -21.2534 C   0  0  0  0  0  0  0  0  0  0  0  0
   23.4468   -9.7895  -12.9780 C   0  0  0  0  0  0  0  0  0  0  0  0
   22.8186  -10.1582  -14.3238 C   0  0  2  0  0  0  0  0  0  0  0  0
   23.7852   -9.6776  -15.3817 C   0  0  0  0  0  0  0  0  0  0  0  0
   21.5086   -9.4629  -14.5285 C   0  0  2  0  0  0  0  0  0  0  0  0
   20.8965   -9.7702  -15.7979 N   0  0  0  0  0  0  0  0  0  0  0  0
   21.7401   -8.0030  -14.4284 C   0  0  0  0  0  0  0  0  0  0  0  0
   21.8270   -7.3373  -15.4888 O   0  0  0  0  0  0  0  0  0  0  0  0
   21.8658   -7.3335  -13.2247 O   0  0  0  0  0  0  0  0  0  0  0  0
  2  1  1  6
  3  2  1  0
  4  3  1  0
  5  4  1  0
  6  5  1  0
  7  6  1  0
  8  9  2  0
  8  2  1  0
 10 11  1  0
 11 12  2  0
 12 13  1  0
 14 13  2  0
 14 15  1  0
 16 15  1  1
 16 17  1  0
 17  8  1  0
 18 26  1  0
 18 16  1  0
 19 18  2  0
 20 14  1  0
 21 11  1  0
 21 20  2  0
 23 22  1  1
 23 25  1  0
 23 24  1  0
 25 27  1  0
 25 26  1  6
 27 29  1  0
 28 27  2  0
M  END
$$$$
