NFS.pdb
     RDKit          3D

 26 26  0  0  1  0  0  0  0  0999 V2000
   27.6880  -20.1684  -19.7878 N   0  0  0  0  0  0  0  0  0  0  0  0
   26.5445  -20.9856  -19.8497 C   0  0  0  0  0  0  0  0  0  0  0  0
   25.7886  -20.8435  -20.8490 O   0  0  0  0  0  0  0  0  0  0  0  0
   26.2384  -21.9748  -18.7839 C   0  0  0  0  0  0  0  0  0  0  0  0
   27.2724  -21.8789  -17.6918 C   0  0  2  0  0  0  0  0  0  0  0  0
   28.3198  -22.8427  -17.9473 N   0  0  0  0  0  0  0  0  0  0  0  0
   26.7164  -22.0896  -16.3499 C   0  0  0  0  0  0  0  0  0  0  0  0
   26.6124  -23.2733  -15.8778 O   0  0  0  0  0  0  0  0  0  0  0  0
   26.2653  -21.0758  -15.4904 N   0  0  0  0  0  0  0  0  0  0  0  0
   25.6632  -21.2806  -14.1922 C   0  0  1  0  0  0  0  0  0  0  0  0
   25.8461  -20.1520  -13.2462 C   0  0  0  0  0  0  0  0  0  0  0  0
   25.3691  -20.3689  -11.8854 C   0  0  0  0  0  0  0  0  0  0  0  0
   24.1693  -19.9769  -11.3603 C   0  0  0  0  0  0  0  0  0  0  0  0
   23.8219  -20.2342  -10.0592 C   0  0  0  0  0  0  0  0  0  0  0  0
   24.6717  -20.9122   -9.1912 C   0  0  0  0  0  0  0  0  0  0  0  0
   25.8823  -21.3084   -9.7192 C   0  0  0  0  0  0  0  0  0  0  0  0
   26.2399  -21.0545  -11.0241 C   0  0  0  0  0  0  0  0  0  0  0  0
   24.2856  -21.8017  -14.3035 C   0  0  0  0  0  0  0  0  0  0  0  0
   24.0874  -23.0092  -14.5821 O   0  0  0  0  0  0  0  0  0  0  0  0
   21.3368  -21.4970  -11.8336 O   0  0  0  0  0  0  0  0  0  0  0  0
   21.5455  -22.3864  -12.8943 C   0  0  0  0  0  0  0  0  0  0  0  0
   21.8061  -21.5485  -14.1434 C   0  0  2  0  0  0  0  0  0  0  0  0
   23.1438  -20.9842  -14.1036 N   0  0  0  0  0  0  0  0  0  0  0  0
   20.8258  -20.4685  -14.2824 C   0  0  0  0  0  0  0  0  0  0  0  0
   19.4952  -20.7562  -14.4790 O   0  0  0  0  0  0  0  0  0  0  0  0
   21.1881  -19.2728  -14.2244 O   0  0  0  0  0  0  0  0  0  0  0  0
  1  2  1  0
  2  3  2  0
  4  2  1  0
  4  5  1  0
  5  6  1  6
  7  5  1  0
  7  8  2  0
  9  7  1  0
 10  9  1  0
 10 11  1  6
 12 17  2  0
 12 11  1  0
 13 12  1  0
 14 15  1  0
 14 13  2  0
 15 16  2  0
 16 17  1  0
 18 10  1  0
 19 18  2  0
 21 20  1  0
 22 21  1  1
 22 23  1  0
 23 18  1  0
 24 25  1  0
 24 22  1  0
 26 24  2  0
M  END
$$$$
