NFS.pdb
     RDKit          3D

 26 26  0  0  1  0  0  0  0  0999 V2000
   15.6790   -6.5347  -15.7943 N   0  0  0  0  0  0  0  0  0  0  0  0
   16.7614   -5.6390  -15.7224 C   0  0  0  0  0  0  0  0  0  0  0  0
   16.5961   -4.5893  -15.0434 O   0  0  0  0  0  0  0  0  0  0  0  0
   18.0459   -5.9159  -16.4163 C   0  0  0  0  0  0  0  0  0  0  0  0
   19.1951   -5.4536  -15.5580 C   0  0  2  0  0  0  0  0  0  0  0  0
   19.1956   -4.0083  -15.5083 N   0  0  0  0  0  0  0  0  0  0  0  0
   20.4984   -5.9376  -16.0283 C   0  0  0  0  0  0  0  0  0  0  0  0
   21.0320   -5.4291  -17.0730 O   0  0  0  0  0  0  0  0  0  0  0  0
   21.2555   -6.9504  -15.4193 N   0  0  0  0  0  0  0  0  0  0  0  0
   22.5258   -7.4513  -15.8941 C   0  0  1  0  0  0  0  0  0  0  0  0
   23.5198   -7.7152  -14.8242 C   0  0  0  0  0  0  0  0  0  0  0  0
   24.7539   -8.3712  -15.2398 C   0  0  0  0  0  0  0  0  0  0  0  0
   25.2000   -9.6059  -14.8581 C   0  0  0  0  0  0  0  0  0  0  0  0
   26.3834  -10.1281  -15.3125 C   0  0  0  0  0  0  0  0  0  0  0  0
   27.2051   -9.4313  -16.1926 C   0  0  0  0  0  0  0  0  0  0  0  0
   26.7568   -8.1859  -16.5787 C   0  0  0  0  0  0  0  0  0  0  0  0
   25.5702   -7.6533  -16.1278 C   0  0  0  0  0  0  0  0  0  0  0  0
   22.3523   -8.5341  -16.8837 C   0  0  0  0  0  0  0  0  0  0  0  0
   21.7711   -9.5982  -16.5603 O   0  0  0  0  0  0  0  0  0  0  0  0
   22.5306   -7.8737  -20.8874 O   0  0  0  0  0  0  0  0  0  0  0  0
   21.8177   -8.9679  -20.3831 C   0  0  0  0  0  0  0  0  0  0  0  0
   22.5904   -9.4948  -19.1766 C   0  0  2  0  0  0  0  0  0  0  0  0
   22.8205   -8.4279  -18.2184 N   0  0  0  0  0  0  0  0  0  0  0  0
   23.8743  -10.0797  -19.5721 C   0  0  0  0  0  0  0  0  0  0  0  0
   23.9152  -11.1661  -20.4146 O   0  0  0  0  0  0  0  0  0  0  0  0
   24.9474   -9.5977  -19.1474 O   0  0  0  0  0  0  0  0  0  0  0  0
  1  2  1  0
  2  3  2  0
  4  2  1  0
  4  5  1  0
  5  6  1  6
  7  5  1  0
  7  8  2  0
  9  7  1  0
 10  9  1  0
 10 11  1  1
 12 17  2  0
 12 11  1  0
 13 12  1  0
 14 15  1  0
 14 13  2  0
 15 16  2  0
 16 17  1  0
 18 10  1  0
 19 18  2  0
 21 20  1  0
 22 21  1  6
 22 23  1  0
 23 18  1  0
 24 25  1  0
 24 22  1  0
 26 24  2  0
M  END
$$$$
