NFS.pdb
     RDKit          3D

 26 26  0  0  1  0  0  0  0  0999 V2000
   22.1774  -13.5482  -19.7009 N   0  0  0  0  0  0  0  0  0  0  0  0
   20.9967  -12.9741  -19.1956 C   0  0  0  0  0  0  0  0  0  0  0  0
   19.9037  -13.4264  -19.6323 O   0  0  0  0  0  0  0  0  0  0  0  0
   21.0336  -11.8809  -18.1896 C   0  0  0  0  0  0  0  0  0  0  0  0
   22.4642  -11.4989  -17.9090 C   0  0  2  0  0  0  0  0  0  0  0  0
   23.0960  -12.5577  -17.1534 N   0  0  0  0  0  0  0  0  0  0  0  0
   22.5915  -10.2266  -17.1886 C   0  0  0  0  0  0  0  0  0  0  0  0
   22.0554  -10.0861  -16.0364 O   0  0  0  0  0  0  0  0  0  0  0  0
   23.2745   -9.0937  -17.6576 N   0  0  0  0  0  0  0  0  0  0  0  0
   23.4682   -7.8644  -16.9218 C   0  0  1  0  0  0  0  0  0  0  0  0
   24.8880   -7.4661  -16.7556 C   0  0  0  0  0  0  0  0  0  0  0  0
   25.7855   -8.4872  -16.2283 C   0  0  0  0  0  0  0  0  0  0  0  0
   25.6827   -9.1351  -15.0289 C   0  0  0  0  0  0  0  0  0  0  0  0
   26.5890  -10.0836  -14.6305 C   0  0  0  0  0  0  0  0  0  0  0  0
   27.6720  -10.4458  -15.4250 C   0  0  0  0  0  0  0  0  0  0  0  0
   27.7773   -9.7933  -16.6351 C   0  0  0  0  0  0  0  0  0  0  0  0
   26.8723   -8.8397  -17.0436 C   0  0  0  0  0  0  0  0  0  0  0  0
   22.5577   -6.7984  -17.3870 C   0  0  0  0  0  0  0  0  0  0  0  0
   22.6157   -6.3909  -18.5725 O   0  0  0  0  0  0  0  0  0  0  0  0
   18.8572   -6.3637  -16.0149 O   0  0  0  0  0  0  0  0  0  0  0  0
   19.2772   -5.8838  -17.2611 C   0  0  0  0  0  0  0  0  0  0  0  0
   20.6418   -5.2303  -17.0583 C   0  0  2  0  0  0  0  0  0  0  0  0
   21.5931   -6.1971  -16.5386 N   0  0  0  0  0  0  0  0  0  0  0  0
   20.5618   -4.0867  -16.1459 C   0  0  0  0  0  0  0  0  0  0  0  0
   19.8257   -2.9752  -16.4846 O   0  0  0  0  0  0  0  0  0  0  0  0
   21.1624   -4.1083  -15.0491 O   0  0  0  0  0  0  0  0  0  0  0  0
  1  2  1  0
  2  3  2  0
  4  2  1  0
  4  5  1  0
  5  6  1  1
  7  5  1  0
  7  8  2  0
  9  7  1  0
 10  9  1  0
 10 11  1  6
 12 17  2  0
 12 11  1  0
 13 12  1  0
 14 15  1  0
 14 13  2  0
 15 16  2  0
 16 17  1  0
 18 10  1  0
 19 18  2  0
 21 20  1  0
 22 21  1  1
 22 23  1  0
 23 18  1  0
 24 25  1  0
 24 22  1  0
 26 24  2  0
M  END
$$$$
