NFS.pdb
     RDKit          3D

 26 26  0  0  1  0  0  0  0  0999 V2000
   27.0927  -19.4339  -18.9205 N   0  0  0  0  0  0  0  0  0  0  0  0
   27.5773  -19.5765  -17.6075 C   0  0  0  0  0  0  0  0  0  0  0  0
   28.8084  -19.3750  -17.4230 O   0  0  0  0  0  0  0  0  0  0  0  0
   26.6784  -19.9486  -16.4842 C   0  0  0  0  0  0  0  0  0  0  0  0
   27.2083  -21.1816  -15.7987 C   0  0  2  0  0  0  0  0  0  0  0  0
   27.0097  -22.3242  -16.6625 N   0  0  0  0  0  0  0  0  0  0  0  0
   26.5862  -21.4287  -14.4926 C   0  0  0  0  0  0  0  0  0  0  0  0
   25.4672  -22.0434  -14.4217 O   0  0  0  0  0  0  0  0  0  0  0  0
   27.1194  -21.0407  -13.2536 N   0  0  0  0  0  0  0  0  0  0  0  0
   26.4206  -21.0791  -11.9886 C   0  0  1  0  0  0  0  0  0  0  0  0
   27.2813  -20.8352  -10.8046 C   0  0  0  0  0  0  0  0  0  0  0  0
   26.5944  -20.7066   -9.5249 C   0  0  0  0  0  0  0  0  0  0  0  0
   25.6102  -21.5179   -9.0326 C   0  0  0  0  0  0  0  0  0  0  0  0
   25.0295  -21.3028   -7.8094 C   0  0  0  0  0  0  0  0  0  0  0  0
   25.4075  -20.2425   -6.9919 C   0  0  0  0  0  0  0  0  0  0  0  0
   26.4001  -19.4232   -7.4868 C   0  0  0  0  0  0  0  0  0  0  0  0
   26.9889  -19.6312   -8.7136 C   0  0  0  0  0  0  0  0  0  0  0  0
   25.1641  -20.3039  -12.0333 C   0  0  0  0  0  0  0  0  0  0  0  0
   25.1952  -19.0584  -12.1835 O   0  0  0  0  0  0  0  0  0  0  0  0
   20.8409  -19.6592  -13.4648 O   0  0  0  0  0  0  0  0  0  0  0  0
   22.0341  -20.3901  -13.4204 C   0  0  0  0  0  0  0  0  0  0  0  0
   22.6726  -20.1325  -12.0579 C   0  0  2  0  0  0  0  0  0  0  0  0
   23.8888  -20.9132  -11.9138 N   0  0  0  0  0  0  0  0  0  0  0  0
   21.7543  -20.4545  -10.9625 C   0  0  0  0  0  0  0  0  0  0  0  0
   20.5792  -19.7561  -10.8102 O   0  0  0  0  0  0  0  0  0  0  0  0
   22.0291  -21.3678  -10.1535 O   0  0  0  0  0  0  0  0  0  0  0  0
  1  2  1  0
  2  3  2  0
  4  2  1  0
  4  5  1  0
  5  6  1  6
  7  5  1  0
  7  8  2  0
  9  7  1  0
 10  9  1  0
 10 11  1  1
 12 17  2  0
 12 11  1  0
 13 12  1  0
 14 15  1  0
 14 13  2  0
 15 16  2  0
 16 17  1  0
 18 10  1  0
 19 18  2  0
 21 20  1  0
 22 21  1  6
 22 23  1  0
 23 18  1  0
 24 25  1  0
 24 22  1  0
 26 24  2  0
M  END
$$$$
