NFS.pdb
     RDKit          3D

 26 26  0  0  1  0  0  0  0  0999 V2000
   17.3706  -10.1335  -20.0236 N   0  0  0  0  0  0  0  0  0  0  0  0
   18.5499   -9.6141  -19.4592 C   0  0  0  0  0  0  0  0  0  0  0  0
   19.6304   -9.8489  -20.0655 O   0  0  0  0  0  0  0  0  0  0  0  0
   18.5258   -8.8222  -18.2020 C   0  0  0  0  0  0  0  0  0  0  0  0
   19.8936   -8.8343  -17.5695 C   0  0  2  0  0  0  0  0  0  0  0  0
   20.1566  -10.1534  -17.0386 N   0  0  0  0  0  0  0  0  0  0  0  0
   20.0493   -7.8296  -16.5110 C   0  0  0  0  0  0  0  0  0  0  0  0
   19.2517   -7.8227  -15.5117 O   0  0  0  0  0  0  0  0  0  0  0  0
   21.0315   -6.8274  -16.4819 N   0  0  0  0  0  0  0  0  0  0  0  0
   21.1719   -5.8176  -15.4569 C   0  0  1  0  0  0  0  0  0  0  0  0
   22.3554   -5.9948  -14.5793 C   0  0  0  0  0  0  0  0  0  0  0  0
   22.4192   -7.2435  -13.8290 C   0  0  0  0  0  0  0  0  0  0  0  0
   23.1521   -8.3550  -14.1393 C   0  0  0  0  0  0  0  0  0  0  0  0
   23.1370   -9.4819  -13.3585 C   0  0  0  0  0  0  0  0  0  0  0  0
   22.3724   -9.5633  -12.1991 C   0  0  0  0  0  0  0  0  0  0  0  0
   21.6325   -8.4431  -11.8846 C   0  0  0  0  0  0  0  0  0  0  0  0
   21.6413   -7.3072  -12.6623 C   0  0  0  0  0  0  0  0  0  0  0  0
   20.9783   -4.4571  -15.9983 C   0  0  0  0  0  0  0  0  0  0  0  0
   21.8912   -3.9039  -16.6582 O   0  0  0  0  0  0  0  0  0  0  0  0
   17.2622   -2.7275  -16.2186 O   0  0  0  0  0  0  0  0  0  0  0  0
   18.2465   -2.3691  -17.1473 C   0  0  0  0  0  0  0  0  0  0  0  0
   19.5911   -2.4249  -16.4266 C   0  0  2  0  0  0  0  0  0  0  0  0
   19.7787   -3.7249  -15.8066 N   0  0  0  0  0  0  0  0  0  0  0  0
   19.7001   -1.3785  -15.4067 C   0  0  0  0  0  0  0  0  0  0  0  0
   19.7313   -0.0522  -15.7698 O   0  0  0  0  0  0  0  0  0  0  0  0
   19.7665   -1.6798  -14.1947 O   0  0  0  0  0  0  0  0  0  0  0  0
  1  2  1  0
  2  3  2  0
  4  2  1  0
  4  5  1  0
  5  6  1  1
  7  5  1  0
  7  8  2  0
  9  7  1  0
 10  9  1  0
 10 11  1  6
 12 17  2  0
 12 11  1  0
 13 12  1  0
 14 15  1  0
 14 13  2  0
 15 16  2  0
 16 17  1  0
 18 10  1  0
 19 18  2  0
 21 20  1  0
 22 21  1  1
 22 23  1  0
 23 18  1  0
 24 25  1  0
 24 22  1  0
 26 24  2  0
M  END
$$$$
