NFS.pdb
     RDKit          3D

 26 26  0  0  1  0  0  0  0  0999 V2000
   32.4055  -22.1571  -11.6636 N   0  0  0  0  0  0  0  0  0  0  0  0
   32.1729  -22.7777  -10.4227 C   0  0  0  0  0  0  0  0  0  0  0  0
   33.1379  -23.3982   -9.8993 O   0  0  0  0  0  0  0  0  0  0  0  0
   30.8471  -22.7063   -9.7552 C   0  0  0  0  0  0  0  0  0  0  0  0
   29.9927  -21.6680  -10.4356 C   0  0  2  0  0  0  0  0  0  0  0  0
   30.6151  -20.3715  -10.2844 N   0  0  0  0  0  0  0  0  0  0  0  0
   28.6181  -21.6250   -9.9230 C   0  0  0  0  0  0  0  0  0  0  0  0
   27.9415  -22.7042   -9.8119 O   0  0  0  0  0  0  0  0  0  0  0  0
   27.9375  -20.4645   -9.5231 N   0  0  0  0  0  0  0  0  0  0  0  0
   26.5444  -20.3960   -9.1429 C   0  0  1  0  0  0  0  0  0  0  0  0
   26.2540  -19.4387   -8.0468 C   0  0  0  0  0  0  0  0  0  0  0  0
   27.0317  -19.6045   -6.8245 C   0  0  0  0  0  0  0  0  0  0  0  0
   28.1579  -18.9180   -6.4647 C   0  0  0  0  0  0  0  0  0  0  0  0
   28.8138  -19.1570   -5.2847 C   0  0  0  0  0  0  0  0  0  0  0  0
   28.3719  -20.1157   -4.3786 C   0  0  0  0  0  0  0  0  0  0  0  0
   27.2362  -20.8090   -4.7398 C   0  0  0  0  0  0  0  0  0  0  0  0
   26.5709  -20.5761   -5.9223 C   0  0  0  0  0  0  0  0  0  0  0  0
   25.6590  -20.3027  -10.3214 C   0  0  0  0  0  0  0  0  0  0  0  0
   25.7862  -19.3545  -11.1336 O   0  0  0  0  0  0  0  0  0  0  0  0
   22.2492  -22.8084  -11.1589 O   0  0  0  0  0  0  0  0  0  0  0  0
   23.2042  -22.4934  -12.1328 C   0  0  0  0  0  0  0  0  0  0  0  0
   23.7977  -21.1364  -11.7630 C   0  0  2  0  0  0  0  0  0  0  0  0
   24.6457  -21.2581  -10.5901 N   0  0  0  0  0  0  0  0  0  0  0  0
   22.7522  -20.1423  -11.5071 C   0  0  0  0  0  0  0  0  0  0  0  0
   21.9183  -19.7313  -12.5208 O   0  0  0  0  0  0  0  0  0  0  0  0
   22.6068  -19.6559  -10.3641 O   0  0  0  0  0  0  0  0  0  0  0  0
  1  2  1  0
  2  3  2  0
  4  2  1  0
  4  5  1  0
  5  6  1  1
  7  5  1  0
  7  8  2  0
  9  7  1  0
 10  9  1  0
 10 11  1  1
 12 17  2  0
 12 11  1  0
 13 12  1  0
 14 15  1  0
 14 13  2  0
 15 16  2  0
 16 17  1  0
 18 10  1  0
 19 18  2  0
 21 20  1  0
 22 21  1  1
 22 23  1  0
 23 18  1  0
 24 25  1  0
 24 22  1  0
 26 24  2  0
M  END
$$$$
