NFS.pdb
     RDKit          3D

 26 26  0  0  1  0  0  0  0  0999 V2000
   28.8862  -23.7578  -16.9603 N   0  0  0  0  0  0  0  0  0  0  0  0
   29.4424  -22.4988  -16.6696 C   0  0  0  0  0  0  0  0  0  0  0  0
   30.6935  -22.3831  -16.7777 O   0  0  0  0  0  0  0  0  0  0  0  0
   28.5937  -21.3524  -16.2527 C   0  0  0  0  0  0  0  0  0  0  0  0
   27.1459  -21.7707  -16.2447 C   0  0  2  0  0  0  0  0  0  0  0  0
   26.7280  -22.0509  -17.6004 N   0  0  0  0  0  0  0  0  0  0  0  0
   26.2581  -20.7672  -15.6457 C   0  0  0  0  0  0  0  0  0  0  0  0
   26.4569  -20.3697  -14.4468 O   0  0  0  0  0  0  0  0  0  0  0  0
   25.1604  -20.1704  -16.2849 N   0  0  0  0  0  0  0  0  0  0  0  0
   24.3125  -19.1458  -15.7180 C   0  0  1  0  0  0  0  0  0  0  0  0
   24.4051  -17.8288  -16.3956 C   0  0  0  0  0  0  0  0  0  0  0  0
   25.6696  -17.1175  -16.2502 C   0  0  0  0  0  0  0  0  0  0  0  0
   26.0789  -16.3749  -15.1778 C   0  0  0  0  0  0  0  0  0  0  0  0
   27.2959  -15.7441  -15.1473 C   0  0  0  0  0  0  0  0  0  0  0  0
   28.1913  -15.8215  -16.2091 C   0  0  0  0  0  0  0  0  0  0  0  0
   27.7802  -16.5701  -17.2916 C   0  0  0  0  0  0  0  0  0  0  0  0
   26.5604  -17.2070  -17.3313 C   0  0  0  0  0  0  0  0  0  0  0  0
   22.9428  -19.6416  -15.4736 C   0  0  0  0  0  0  0  0  0  0  0  0
   22.4415  -20.5105  -16.2276 O   0  0  0  0  0  0  0  0  0  0  0  0
   18.9411  -19.6769  -12.7378 O   0  0  0  0  0  0  0  0  0  0  0  0
   20.2227  -19.1332  -12.8856 C   0  0  0  0  0  0  0  0  0  0  0  0
   20.8138  -19.7096  -14.1696 C   0  0  2  0  0  0  0  0  0  0  0  0
   22.1443  -19.1739  -14.3986 N   0  0  0  0  0  0  0  0  0  0  0  0
   19.9666  -19.4222  -15.3299 C   0  0  0  0  0  0  0  0  0  0  0  0
   18.9147  -20.2499  -15.6469 O   0  0  0  0  0  0  0  0  0  0  0  0
   20.1908  -18.4211  -16.0454 O   0  0  0  0  0  0  0  0  0  0  0  0
  1  2  1  0
  2  3  2  0
  4  2  1  0
  4  5  1  0
  5  6  1  6
  7  5  1  0
  7  8  2  0
  9  7  1  0
 10  9  1  0
 10 11  1  6
 12 17  2  0
 12 11  1  0
 13 12  1  0
 14 15  1  0
 14 13  2  0
 15 16  2  0
 16 17  1  0
 18 10  1  0
 19 18  2  0
 21 20  1  0
 22 21  1  1
 22 23  1  0
 23 18  1  0
 24 25  1  0
 24 22  1  0
 26 24  2  0
M  END
$$$$
