NFS.pdb
     RDKit          3D

 26 26  0  0  1  0  0  0  0  0999 V2000
   29.1711  -17.6151  -14.3686 N   0  0  0  0  0  0  0  0  0  0  0  0
   28.9194  -18.9811  -14.5918 C   0  0  0  0  0  0  0  0  0  0  0  0
   29.5785  -19.5462  -15.5063 O   0  0  0  0  0  0  0  0  0  0  0  0
   27.9198  -19.7284  -13.7852 C   0  0  0  0  0  0  0  0  0  0  0  0
   28.6017  -20.3780  -12.6088 C   0  0  2  0  0  0  0  0  0  0  0  0
   29.3578  -21.5201  -13.0729 N   0  0  0  0  0  0  0  0  0  0  0  0
   27.6669  -20.7924  -11.5559 C   0  0  0  0  0  0  0  0  0  0  0  0
   27.0988  -21.9362  -11.6171 O   0  0  0  0  0  0  0  0  0  0  0  0
   27.3158  -20.0245  -10.4347 N   0  0  0  0  0  0  0  0  0  0  0  0
   26.1296  -20.2074   -9.6287 C   0  0  1  0  0  0  0  0  0  0  0  0
   26.1523  -19.4868   -8.3316 C   0  0  0  0  0  0  0  0  0  0  0  0
   27.1481  -19.9333   -7.3646 C   0  0  0  0  0  0  0  0  0  0  0  0
   28.3225  -20.5809   -7.6301 C   0  0  0  0  0  0  0  0  0  0  0  0
   29.1900  -20.9578   -6.6375 C   0  0  0  0  0  0  0  0  0  0  0  0
   28.9273  -20.7034   -5.2953 C   0  0  0  0  0  0  0  0  0  0  0  0
   27.7433  -20.0502   -5.0256 C   0  0  0  0  0  0  0  0  0  0  0  0
   26.8662  -19.6680   -6.0154 C   0  0  0  0  0  0  0  0  0  0  0  0
   24.8961  -20.0469  -10.4251 C   0  0  0  0  0  0  0  0  0  0  0  0
   24.7691  -19.0707  -11.2033 O   0  0  0  0  0  0  0  0  0  0  0  0
   23.0551  -22.8411  -12.2017 O   0  0  0  0  0  0  0  0  0  0  0  0
   22.7478  -21.5053  -12.4867 C   0  0  0  0  0  0  0  0  0  0  0  0
   22.6204  -20.7753  -11.1520 C   0  0  2  0  0  0  0  0  0  0  0  0
   23.8190  -20.9672  -10.3545 N   0  0  0  0  0  0  0  0  0  0  0  0
   21.4530  -21.2348  -10.3952 C   0  0  0  0  0  0  0  0  0  0  0  0
   20.1923  -21.1484  -10.9384 O   0  0  0  0  0  0  0  0  0  0  0  0
   21.5898  -21.7102   -9.2466 O   0  0  0  0  0  0  0  0  0  0  0  0
  1  2  1  0
  2  3  2  0
  4  2  1  0
  4  5  1  0
  5  6  1  6
  7  5  1  0
  7  8  2  0
  9  7  1  0
 10  9  1  0
 10 11  1  1
 12 17  2  0
 12 11  1  0
 13 12  1  0
 14 15  1  0
 14 13  2  0
 15 16  2  0
 16 17  1  0
 18 10  1  0
 19 18  2  0
 21 20  1  0
 22 21  1  6
 22 23  1  0
 23 18  1  0
 24 25  1  0
 24 22  1  0
 26 24  2  0
M  END
$$$$
