NFS.pdb
     RDKit          3D

 26 26  0  0  1  0  0  0  0  0999 V2000
   21.4356  -10.2257  -21.3135 N   0  0  0  0  0  0  0  0  0  0  0  0
   20.1100   -9.8820  -20.9913 C   0  0  0  0  0  0  0  0  0  0  0  0
   19.2239  -10.1353  -21.8521 O   0  0  0  0  0  0  0  0  0  0  0  0
   19.7661   -9.2475  -19.6922 C   0  0  0  0  0  0  0  0  0  0  0  0
   21.0209   -9.0321  -18.8860 C   0  0  2  0  0  0  0  0  0  0  0  0
   21.4668  -10.3025  -18.3581 N   0  0  0  0  0  0  0  0  0  0  0  0
   20.8461   -8.0701  -17.7914 C   0  0  0  0  0  0  0  0  0  0  0  0
   19.9606   -8.2762  -16.8924 O   0  0  0  0  0  0  0  0  0  0  0  0
   21.5871   -6.8902  -17.6224 N   0  0  0  0  0  0  0  0  0  0  0  0
   21.5476   -6.0321  -16.4595 C   0  0  1  0  0  0  0  0  0  0  0  0
   22.8026   -6.0141  -15.6676 C   0  0  0  0  0  0  0  0  0  0  0  0
   23.3172   -7.3120  -15.2473 C   0  0  0  0  0  0  0  0  0  0  0  0
   24.3334   -8.0217  -15.8239 C   0  0  0  0  0  0  0  0  0  0  0  0
   24.7378   -9.2407  -15.3438 C   0  0  0  0  0  0  0  0  0  0  0  0
   24.1366   -9.8316  -14.2371 C   0  0  0  0  0  0  0  0  0  0  0  0
   23.1114   -9.1171  -13.6542 C   0  0  0  0  0  0  0  0  0  0  0  0
   22.6986   -7.8927  -14.1291 C   0  0  0  0  0  0  0  0  0  0  0  0
   20.9744   -4.7079  -16.7752 C   0  0  0  0  0  0  0  0  0  0  0  0
   21.5176   -3.9733  -17.6355 O   0  0  0  0  0  0  0  0  0  0  0  0
   17.4972   -3.3953  -14.9974 O   0  0  0  0  0  0  0  0  0  0  0  0
   17.7222   -2.9443  -16.3035 C   0  0  0  0  0  0  0  0  0  0  0  0
   19.2325   -2.9357  -16.5258 C   0  0  2  0  0  0  0  0  0  0  0  0
   19.8077   -4.2120  -16.1391 N   0  0  0  0  0  0  0  0  0  0  0  0
   19.8824   -1.8602  -15.7723 C   0  0  0  0  0  0  0  0  0  0  0  0
   19.5044   -0.5510  -15.9600 O   0  0  0  0  0  0  0  0  0  0  0  0
   20.7885   -2.1206  -14.9505 O   0  0  0  0  0  0  0  0  0  0  0  0
  1  2  1  0
  2  3  2  0
  4  2  1  0
  4  5  1  0
  5  6  1  1
  7  5  1  0
  7  8  2  0
  9  7  1  0
 10  9  1  0
 10 11  1  6
 12 17  2  0
 12 11  1  0
 13 12  1  0
 14 15  1  0
 14 13  2  0
 15 16  2  0
 16 17  1  0
 18 10  1  0
 19 18  2  0
 21 20  1  0
 22 21  1  1
 22 23  1  0
 23 18  1  0
 24 25  1  0
 24 22  1  0
 26 24  2  0
M  END
$$$$
