DNC.pdb
     RDKit          3D

 23 22  0  0  1  0  0  0  0  0999 V2000
   16.1050  -13.1733  -13.4069 N   0  0  0  0  0  0  0  0  0  0  0  0
   15.5880  -11.8255  -13.7251 C   0  0  1  0  0  0  0  0  0  0  0  0
   14.1250  -11.8155  -13.4094 C   0  0  0  0  0  0  0  0  0  0  0  0
   13.3325  -12.7258  -14.2340 C   0  0  0  0  0  0  0  0  0  0  0  0
   13.2001  -12.6488  -15.4588 O   0  0  0  0  0  0  0  0  0  0  0  0
   16.3601  -10.8309  -12.9371 C   0  0  0  0  0  0  0  0  0  0  0  0
   16.6569  -11.0432  -11.7516 O   0  0  0  0  0  0  0  0  0  0  0  0
   12.6553  -13.7857  -13.6072 O   0  0  0  0  0  0  0  0  0  0  0  0
   20.6820   -7.5643  -11.9766 N   0  0  0  0  0  0  0  0  0  0  0  0
   19.5912   -7.1551  -12.8107 C   0  0  0  0  0  0  0  0  0  0  0  0
   19.3720   -5.9235  -12.9242 O   0  0  0  0  0  0  0  0  0  0  0  0
   18.7516   -8.1370  -13.5140 C   0  0  0  0  0  0  0  0  0  0  0  0
   17.6071   -8.6710  -12.7106 C   0  0  2  0  0  0  0  0  0  0  0  0
   16.7903   -9.5927  -13.5103 N   0  0  0  0  0  0  0  0  0  0  0  0
   16.7568   -7.6184  -12.1109 C   0  0  0  0  0  0  0  0  0  0  0  0
   15.9492   -6.9535  -12.7808 O   0  0  0  0  0  0  0  0  0  0  0  0
   16.8562   -7.3400  -10.6922 N   0  0  0  0  0  0  0  0  0  0  0  0
   16.0761   -6.3775   -9.9979 C   0  0  1  0  0  0  0  0  0  0  0  0
   16.0885   -6.5456   -8.4963 C   0  0  0  0  0  0  0  0  0  0  0  0
   15.2326   -8.1142   -8.1056 S   0  0  0  0  0  0  0  0  0  0  0  0
   16.6113   -5.0236  -10.2748 C   0  0  0  0  0  0  0  0  0  0  0  0
   15.9650   -3.9286   -9.7307 O   0  0  0  0  0  0  0  0  0  0  0  0
   17.6259   -4.8260  -10.9819 O   0  0  0  0  0  0  0  0  0  0  0  0
  2  1  1  1
  3  2  1  0
  3  4  1  0
  4  5  2  0
  6  7  2  0
  6  2  1  0
  8  4  1  0
  9 10  1  0
 10 11  2  0
 10 12  1  0
 13 12  1  6
 13 15  1  0
 13 14  1  0
 14  6  1  0
 15 17  1  0
 16 15  2  0
 17 18  1  0
 18 21  1  0
 19 20  1  0
 18 19  1  1
 21 23  2  0
 21 22  1  0
M  END
$$$$
