DNC.pdb
     RDKit          3D

 23 22  0  0  1  0  0  0  0  0999 V2000
   13.1861  -12.4148  -13.7077 N   0  0  0  0  0  0  0  0  0  0  0  0
   13.6030  -12.3347  -12.2917 C   0  0  1  0  0  0  0  0  0  0  0  0
   13.8154  -13.7332  -11.8025 C   0  0  0  0  0  0  0  0  0  0  0  0
   12.5782  -14.4768  -11.5720 C   0  0  0  0  0  0  0  0  0  0  0  0
   11.4394  -14.0034  -11.6240 O   0  0  0  0  0  0  0  0  0  0  0  0
   14.8277  -11.4981  -12.2119 C   0  0  0  0  0  0  0  0  0  0  0  0
   15.5311  -11.4870  -11.1902 O   0  0  0  0  0  0  0  0  0  0  0  0
   12.6623  -15.8456  -11.2646 O   0  0  0  0  0  0  0  0  0  0  0  0
   19.1119  -11.4289  -14.6781 N   0  0  0  0  0  0  0  0  0  0  0  0
   17.7476  -11.0657  -14.9233 C   0  0  0  0  0  0  0  0  0  0  0  0
   17.0279  -11.8838  -15.5481 O   0  0  0  0  0  0  0  0  0  0  0  0
   17.2002   -9.7805  -14.4624 C   0  0  0  0  0  0  0  0  0  0  0  0
   16.4503   -9.8479  -13.1688 C   0  0  2  0  0  0  0  0  0  0  0  0
   15.2440  -10.6740  -13.3048 N   0  0  0  0  0  0  0  0  0  0  0  0
   16.1051   -8.5217  -12.6096 C   0  0  0  0  0  0  0  0  0  0  0  0
   15.1731   -7.8330  -13.0570 O   0  0  0  0  0  0  0  0  0  0  0  0
   16.8711   -7.9918  -11.4993 N   0  0  0  0  0  0  0  0  0  0  0  0
   16.6200   -6.7482  -10.8609 C   0  0  1  0  0  0  0  0  0  0  0  0
   17.2357   -6.6291   -9.4862 C   0  0  0  0  0  0  0  0  0  0  0  0
   16.5458   -7.9692   -8.4502 S   0  0  0  0  0  0  0  0  0  0  0  0
   17.1976   -5.6548  -11.6777 C   0  0  0  0  0  0  0  0  0  0  0  0
   16.9668   -4.3457  -11.2956 O   0  0  0  0  0  0  0  0  0  0  0  0
   17.8875   -5.8638  -12.7018 O   0  0  0  0  0  0  0  0  0  0  0  0
  2  1  1  6
  3  2  1  0
  3  4  1  0
  4  5  2  0
  6  7  2  0
  6  2  1  0
  8  4  1  0
  9 10  1  0
 10 11  2  0
 10 12  1  0
 13 12  1  6
 13 15  1  0
 13 14  1  0
 14  6  1  0
 15 17  1  0
 16 15  2  0
 17 18  1  0
 18 21  1  0
 19 20  1  0
 18 19  1  1
 21 23  2  0
 21 22  1  0
M  END
$$$$
