DNC.pdb
     RDKit          3D

 23 22  0  0  1  0  0  0  0  0999 V2000
   22.3815  -16.7672  -19.6322 N   0  0  0  0  0  0  0  0  0  0  0  0
   21.6337  -16.3141  -18.4402 C   0  0  1  0  0  0  0  0  0  0  0  0
   22.3327  -16.8578  -17.2336 C   0  0  0  0  0  0  0  0  0  0  0  0
   22.2795  -18.3142  -17.1215 C   0  0  0  0  0  0  0  0  0  0  0  0
   21.2564  -19.0003  -17.2008 O   0  0  0  0  0  0  0  0  0  0  0  0
   21.5773  -14.8299  -18.4604 C   0  0  0  0  0  0  0  0  0  0  0  0
   22.3195  -14.1702  -19.2037 O   0  0  0  0  0  0  0  0  0  0  0  0
   23.4770  -19.0175  -16.9061 O   0  0  0  0  0  0  0  0  0  0  0  0
   19.5871   -9.8740  -19.4130 N   0  0  0  0  0  0  0  0  0  0  0  0
   19.2426  -10.6659  -18.2696 C   0  0  0  0  0  0  0  0  0  0  0  0
   18.8105  -10.0680  -17.2530 O   0  0  0  0  0  0  0  0  0  0  0  0
   19.3867  -12.1298  -18.2774 C   0  0  0  0  0  0  0  0  0  0  0  0
   20.6596  -12.6363  -17.6746 C   0  0  2  0  0  0  0  0  0  0  0  0
   20.6692  -14.1039  -17.6267 N   0  0  0  0  0  0  0  0  0  0  0  0
   20.9499  -12.0761  -16.3357 C   0  0  0  0  0  0  0  0  0  0  0  0
   20.7472  -12.7141  -15.2893 O   0  0  0  0  0  0  0  0  0  0  0  0
   21.4910  -10.7366  -16.2224 N   0  0  0  0  0  0  0  0  0  0  0  0
   21.8808  -10.1197  -15.0040 C   0  0  1  0  0  0  0  0  0  0  0  0
   23.1591  -10.6727  -14.4180 C   0  0  0  0  0  0  0  0  0  0  0  0
   23.5253   -9.7300  -12.8940 S   0  0  0  0  0  0  0  0  0  0  0  0
   22.1161   -8.6758  -15.2411 C   0  0  0  0  0  0  0  0  0  0  0  0
   22.0286   -7.8030  -14.1718 O   0  0  0  0  0  0  0  0  0  0  0  0
   22.3912   -8.2091  -16.3702 O   0  0  0  0  0  0  0  0  0  0  0  0
  2  1  1  6
  3  2  1  0
  3  4  1  0
  4  5  2  0
  6  7  2  0
  6  2  1  0
  8  4  1  0
  9 10  1  0
 10 11  2  0
 10 12  1  0
 13 12  1  1
 13 15  1  0
 13 14  1  0
 14  6  1  0
 15 17  1  0
 16 15  2  0
 17 18  1  0
 18 21  1  0
 19 20  1  0
 18 19  1  6
 21 23  2  0
 21 22  1  0
M  END
$$$$
