DNC.pdb
     RDKit          3D

 23 22  0  0  1  0  0  0  0  0999 V2000
   19.1471  -22.9118  -11.3255 N   0  0  0  0  0  0  0  0  0  0  0  0
   19.3219  -23.0942  -12.7820 C   0  0  1  0  0  0  0  0  0  0  0  0
   18.0441  -22.6863  -13.4460 C   0  0  0  0  0  0  0  0  0  0  0  0
   16.9505  -23.6396  -13.2675 C   0  0  0  0  0  0  0  0  0  0  0  0
   17.0800  -24.8230  -12.9410 O   0  0  0  0  0  0  0  0  0  0  0  0
   20.4884  -22.2843  -13.2177 C   0  0  0  0  0  0  0  0  0  0  0  0
   20.5472  -21.0676  -12.9838 O   0  0  0  0  0  0  0  0  0  0  0  0
   15.6324  -23.2000  -13.4778 O   0  0  0  0  0  0  0  0  0  0  0  0
   26.4571  -22.6742  -14.8049 N   0  0  0  0  0  0  0  0  0  0  0  0
   25.2500  -22.0556  -14.3430 C   0  0  0  0  0  0  0  0  0  0  0  0
   25.2747  -20.8197  -14.1198 O   0  0  0  0  0  0  0  0  0  0  0  0
   24.0191  -22.8336  -14.1349 C   0  0  0  0  0  0  0  0  0  0  0  0
   22.7525  -22.0461  -14.2611 C   0  0  2  0  0  0  0  0  0  0  0  0
   21.5862  -22.8716  -13.9224 N   0  0  0  0  0  0  0  0  0  0  0  0
   22.5701  -21.4183  -15.5889 C   0  0  0  0  0  0  0  0  0  0  0  0
   22.1502  -22.0509  -16.5720 O   0  0  0  0  0  0  0  0  0  0  0  0
   22.8874  -20.0155  -15.7669 N   0  0  0  0  0  0  0  0  0  0  0  0
   22.7432  -19.2995  -16.9850 C   0  0  1  0  0  0  0  0  0  0  0  0
   22.5288  -17.8151  -16.8022 C   0  0  0  0  0  0  0  0  0  0  0  0
   21.1733  -17.5939  -15.5942 S   0  0  0  0  0  0  0  0  0  0  0  0
   23.9786  -19.4510  -17.7895 C   0  0  0  0  0  0  0  0  0  0  0  0
   24.0076  -18.9271  -19.0692 O   0  0  0  0  0  0  0  0  0  0  0  0
   25.0007  -20.0343  -17.3611 O   0  0  0  0  0  0  0  0  0  0  0  0
  2  1  1  1
  3  2  1  0
  3  4  1  0
  4  5  2  0
  6  7  2  0
  6  2  1  0
  8  4  1  0
  9 10  1  0
 10 11  2  0
 10 12  1  0
 13 12  1  6
 13 15  1  0
 13 14  1  0
 14  6  1  0
 15 17  1  0
 16 15  2  0
 17 18  1  0
 18 21  1  0
 19 20  1  0
 18 19  1  1
 21 23  2  0
 21 22  1  0
M  END
$$$$
