DNC.pdb
     RDKit          3D

 23 22  0  0  1  0  0  0  0  0999 V2000
   13.1987   -9.1164   -9.5015 N   0  0  0  0  0  0  0  0  0  0  0  0
   14.5919   -9.4060   -9.9021 C   0  0  1  0  0  0  0  0  0  0  0  0
   14.5433  -10.3769  -11.0401 C   0  0  0  0  0  0  0  0  0  0  0  0
   14.1061  -11.7186  -10.6588 C   0  0  0  0  0  0  0  0  0  0  0  0
   14.2301  -12.2190   -9.5372 O   0  0  0  0  0  0  0  0  0  0  0  0
   15.2516   -8.1239  -10.2589 C   0  0  0  0  0  0  0  0  0  0  0  0
   14.7445   -7.3503  -11.0854 O   0  0  0  0  0  0  0  0  0  0  0  0
   13.4899  -12.5275  -11.6289 O   0  0  0  0  0  0  0  0  0  0  0  0
   18.4727   -3.4862   -8.3787 N   0  0  0  0  0  0  0  0  0  0  0  0
   17.6155   -4.1392   -9.3233 C   0  0  0  0  0  0  0  0  0  0  0  0
   17.4279   -3.5753  -10.4298 O   0  0  0  0  0  0  0  0  0  0  0  0
   16.9732   -5.4263   -9.0159 C   0  0  0  0  0  0  0  0  0  0  0  0
   17.1232   -6.4698  -10.0785 C   0  0  2  0  0  0  0  0  0  0  0  0
   16.4935   -7.7309   -9.6672 N   0  0  0  0  0  0  0  0  0  0  0  0
   18.5254   -6.7052  -10.4897 C   0  0  0  0  0  0  0  0  0  0  0  0
   19.3864   -7.1337   -9.7035 O   0  0  0  0  0  0  0  0  0  0  0  0
   18.9262   -6.4319  -11.8553 N   0  0  0  0  0  0  0  0  0  0  0  0
   20.2382   -6.6144  -12.3675 C   0  0  1  0  0  0  0  0  0  0  0  0
   20.2807   -7.2878  -13.7195 C   0  0  0  0  0  0  0  0  0  0  0  0
   19.6625   -8.9963  -13.5092 S   0  0  0  0  0  0  0  0  0  0  0  0
   20.8854   -5.2918  -12.5349 C   0  0  0  0  0  0  0  0  0  0  0  0
   22.2498   -5.2419  -12.7555 O   0  0  0  0  0  0  0  0  0  0  0  0
   20.2500   -4.2137  -12.4852 O   0  0  0  0  0  0  0  0  0  0  0  0
  2  1  1  6
  3  2  1  0
  3  4  1  0
  4  5  2  0
  6  7  2  0
  6  2  1  0
  8  4  1  0
  9 10  1  0
 10 11  2  0
 10 12  1  0
 13 12  1  1
 13 15  1  0
 13 14  1  0
 14  6  1  0
 15 17  1  0
 16 15  2  0
 17 18  1  0
 18 21  1  0
 19 20  1  0
 18 19  1  6
 21 23  2  0
 21 22  1  0
M  END
$$$$
