DNC.pdb
     RDKit          3D

 23 22  0  0  1  0  0  0  0  0999 V2000
   13.1145  -11.3256  -11.9350 N   0  0  0  0  0  0  0  0  0  0  0  0
   14.3348  -11.3321  -11.1008 C   0  0  1  0  0  0  0  0  0  0  0  0
   15.2544  -12.3766  -11.6517 C   0  0  0  0  0  0  0  0  0  0  0  0
   14.7573  -13.7434  -11.5057 C   0  0  0  0  0  0  0  0  0  0  0  0
   14.2359  -14.2095  -10.4885 O   0  0  0  0  0  0  0  0  0  0  0  0
   14.9234   -9.9685  -11.1231 C   0  0  0  0  0  0  0  0  0  0  0  0
   14.9717   -9.3082  -12.1721 O   0  0  0  0  0  0  0  0  0  0  0  0
   14.8686  -14.6211  -12.5976 O   0  0  0  0  0  0  0  0  0  0  0  0
   17.0160   -5.3504   -9.7423 N   0  0  0  0  0  0  0  0  0  0  0  0
   16.1723   -5.8656   -8.7050 C   0  0  0  0  0  0  0  0  0  0  0  0
   15.8855   -5.1008   -7.7507 O   0  0  0  0  0  0  0  0  0  0  0  0
   15.6550   -7.2419   -8.7482 C   0  0  0  0  0  0  0  0  0  0  0  0
   15.9771   -7.9921  -10.0028 C   0  0  2  0  0  0  0  0  0  0  0  0
   15.4568   -9.3639   -9.9413 N   0  0  0  0  0  0  0  0  0  0  0  0
   17.4187   -8.0033  -10.3377 C   0  0  0  0  0  0  0  0  0  0  0  0
   18.2153   -8.8054   -9.8226 O   0  0  0  0  0  0  0  0  0  0  0  0
   17.9374   -7.0517  -11.2997 N   0  0  0  0  0  0  0  0  0  0  0  0
   19.2613   -7.0576  -11.8136 C   0  0  1  0  0  0  0  0  0  0  0  0
   19.6159   -8.3102  -12.5807 C   0  0  0  0  0  0  0  0  0  0  0  0
   21.3621   -8.1650  -13.1054 S   0  0  0  0  0  0  0  0  0  0  0  0
   19.4243   -5.9258  -12.7562 C   0  0  0  0  0  0  0  0  0  0  0  0
   20.7026   -5.5101  -13.0821 O   0  0  0  0  0  0  0  0  0  0  0  0
   18.4532   -5.3268  -13.2724 O   0  0  0  0  0  0  0  0  0  0  0  0
  2  1  1  6
  3  2  1  0
  3  4  1  0
  4  5  2  0
  6  7  2  0
  6  2  1  0
  8  4  1  0
  9 10  1  0
 10 11  2  0
 10 12  1  0
 13 12  1  1
 13 15  1  0
 13 14  1  0
 14  6  1  0
 15 17  1  0
 16 15  2  0
 17 18  1  0
 18 21  1  0
 19 20  1  0
 18 19  1  6
 21 23  2  0
 21 22  1  0
M  END
$$$$
