PGC.pdb
     RDKit          3D

 18 18  0  0  1  0  0  0  0  0999 V2000
    8.9905  -17.4306   20.5933 N   0  0  0  0  0  0  0  0  0  0  0  0
    8.7052  -18.0860   19.3570 C   0  0  0  0  0  0  0  0  0  0  0  0
    7.7809  -17.1844   18.5707 C   0  0  0  0  0  0  0  0  0  0  0  0
    7.9343  -15.8509   19.2314 C   0  0  0  0  0  0  0  0  0  0  0  0
    8.8123  -16.0221   20.4266 C   0  0  1  0  0  0  0  0  0  0  0  0
    8.0586  -15.4925   21.6172 C   0  0  0  0  0  0  0  0  0  0  0  0
    7.6901  -14.2949   21.6951 O   0  0  0  0  0  0  0  0  0  0  0  0
    7.7366  -16.3602   22.7139 N   0  0  0  0  0  0  0  0  0  0  0  0
    7.0002  -15.8132   23.8107 C   0  0  0  0  0  0  0  0  0  0  0  0
    7.7394  -14.9509   24.7228 C   0  0  0  0  0  0  0  0  0  0  0  0
    8.9799  -14.8110   24.4746 O   0  0  0  0  0  0  0  0  0  0  0  0
    7.2330  -14.2570   25.8462 N   0  0  0  0  0  0  0  0  0  0  0  0
    8.0256  -13.3213   26.6288 C   0  0  1  0  0  0  0  0  0  0  0  0
    7.1171  -12.3553   27.3123 C   0  0  0  0  0  0  0  0  0  0  0  0
    5.6472  -12.0229   26.2742 S   0  0  0  0  0  0  0  0  0  0  0  0
    8.8435  -14.0767   27.6092 C   0  0  0  0  0  0  0  0  0  0  0  0
    9.8406  -13.4253   28.3484 O   0  0  0  0  0  0  0  0  0  0  0  0
    8.6454  -15.2941   27.7780 O   0  0  0  0  0  0  0  0  0  0  0  0
  1  5  1  0
  1  2  1  0
  2  3  1  0
  4  3  1  0
  5  4  1  0
  6  8  1  0
  5  6  1  1
  7  6  2  0
  9  8  1  0
 10  9  1  0
 11 10  2  0
 12 10  1  0
 13 16  1  0
 13 12  1  0
 13 14  1  1
 15 14  1  0
 16 17  1  0
 18 16  2  0
M  END
$$$$
