PGC.pdb
     RDKit          3D

 18 18  0  0  1  0  0  0  0  0999 V2000
    7.0517  -14.6605   19.9693 N   0  0  0  0  0  0  0  0  0  0  0  0
    6.6008  -13.4126   19.4413 C   0  0  0  0  0  0  0  0  0  0  0  0
    7.7196  -12.4129   19.6271 C   0  0  0  0  0  0  0  0  0  0  0  0
    8.9251  -13.2657   19.8675 C   0  0  0  0  0  0  0  0  0  0  0  0
    8.4806  -14.6888   19.9440 C   0  0  1  0  0  0  0  0  0  0  0  0
    8.9700  -15.2424   21.2556 C   0  0  0  0  0  0  0  0  0  0  0  0
   10.1921  -15.3832   21.5062 O   0  0  0  0  0  0  0  0  0  0  0  0
    8.0336  -15.6304   22.2713 N   0  0  0  0  0  0  0  0  0  0  0  0
    8.5506  -16.1233   23.5101 C   0  0  0  0  0  0  0  0  0  0  0  0
    8.7605  -15.1390   24.5631 C   0  0  0  0  0  0  0  0  0  0  0  0
    9.9686  -14.7992   24.7752 O   0  0  0  0  0  0  0  0  0  0  0  0
    7.7754  -14.5237   25.3701 N   0  0  0  0  0  0  0  0  0  0  0  0
    8.0935  -13.6489   26.4879 C   0  0  1  0  0  0  0  0  0  0  0  0
    6.8340  -13.0575   27.0264 C   0  0  0  0  0  0  0  0  0  0  0  0
    5.8514  -12.3163   25.6722 S   0  0  0  0  0  0  0  0  0  0  0  0
    8.8095  -14.4279   27.5279 C   0  0  0  0  0  0  0  0  0  0  0  0
    9.3774  -13.7775   28.6320 O   0  0  0  0  0  0  0  0  0  0  0  0
    8.9076  -15.6644   27.4216 O   0  0  0  0  0  0  0  0  0  0  0  0
  1  5  1  0
  1  2  1  0
  2  3  1  0
  4  3  1  0
  5  4  1  0
  6  8  1  0
  5  6  1  1
  7  6  2  0
  9  8  1  0
 10  9  1  0
 11 10  2  0
 12 10  1  0
 13 16  1  0
 13 12  1  0
 13 14  1  1
 15 14  1  0
 16 17  1  0
 18 16  2  0
M  END
$$$$
