PGC.pdb
     RDKit          3D

 18 18  0  0  1  0  0  0  0  0999 V2000
    8.3979  -15.2228   19.3005 N   0  0  0  0  0  0  0  0  0  0  0  0
    7.9648  -14.8756   17.9848 C   0  0  0  0  0  0  0  0  0  0  0  0
    7.3983  -13.4754   18.0504 C   0  0  0  0  0  0  0  0  0  0  0  0
    7.9392  -12.9305   19.3345 C   0  0  0  0  0  0  0  0  0  0  0  0
    8.6766  -14.0259   20.0309 C   0  0  1  0  0  0  0  0  0  0  0  0
    8.0860  -14.1597   21.4090 C   0  0  0  0  0  0  0  0  0  0  0  0
    8.0070  -13.1868   22.1986 O   0  0  0  0  0  0  0  0  0  0  0  0
    7.5891  -15.4270   21.8631 N   0  0  0  0  0  0  0  0  0  0  0  0
    6.9512  -15.4804   23.1418 C   0  0  0  0  0  0  0  0  0  0  0  0
    7.6622  -14.8543   24.2482 C   0  0  0  0  0  0  0  0  0  0  0  0
    8.9323  -14.8554   24.1659 O   0  0  0  0  0  0  0  0  0  0  0  0
    7.0994  -14.2496   25.3961 N   0  0  0  0  0  0  0  0  0  0  0  0
    7.8965  -13.6143   26.4340 C   0  0  1  0  0  0  0  0  0  0  0  0
    7.0133  -12.7644   27.2846 C   0  0  0  0  0  0  0  0  0  0  0  0
    5.7236  -11.9661   26.2609 S   0  0  0  0  0  0  0  0  0  0  0  0
    8.5725  -14.6614   27.2387 C   0  0  0  0  0  0  0  0  0  0  0  0
    8.3110  -16.0171   26.9968 O   0  0  0  0  0  0  0  0  0  0  0  0
    9.3757  -14.3372   28.1329 O   0  0  0  0  0  0  0  0  0  0  0  0
  1  5  1  0
  1  2  1  0
  2  3  1  0
  4  3  1  0
  5  4  1  0
  6  8  1  0
  5  6  1  1
  7  6  2  0
  9  8  1  0
 10  9  1  0
 11 10  2  0
 12 10  1  0
 13 16  1  0
 13 12  1  0
 13 14  1  1
 15 14  1  0
 16 17  1  0
 18 16  2  0
M  END
$$$$
