PGC.pdb
     RDKit          3D

 18 18  0  0  1  0  0  0  0  0999 V2000
    8.5284  -15.3460   19.4529 N   0  0  0  0  0  0  0  0  0  0  0  0
    8.1643  -15.1645   18.0840 C   0  0  0  0  0  0  0  0  0  0  0  0
    7.5086  -13.8074   17.9671 C   0  0  0  0  0  0  0  0  0  0  0  0
    7.9266  -13.0992   19.2169 C   0  0  0  0  0  0  0  0  0  0  0  0
    8.6821  -14.0650   20.0684 C   0  0  1  0  0  0  0  0  0  0  0  0
    8.0093  -14.0988   21.4146 C   0  0  0  0  0  0  0  0  0  0  0  0
    7.9143  -13.0779   22.1391 O   0  0  0  0  0  0  0  0  0  0  0  0
    7.4490  -15.3224   21.9127 N   0  0  0  0  0  0  0  0  0  0  0  0
    6.8312  -15.3037   23.2021 C   0  0  0  0  0  0  0  0  0  0  0  0
    7.6085  -14.7172   24.2855 C   0  0  0  0  0  0  0  0  0  0  0  0
    8.8699  -14.6944   24.1169 O   0  0  0  0  0  0  0  0  0  0  0  0
    7.1183  -14.1742   25.4958 N   0  0  0  0  0  0  0  0  0  0  0  0
    7.9721  -13.5397   26.4881 C   0  0  1  0  0  0  0  0  0  0  0  0
    7.1375  -12.6914   27.3880 C   0  0  0  0  0  0  0  0  0  0  0  0
    5.7740  -11.9165   26.4452 S   0  0  0  0  0  0  0  0  0  0  0  0
    8.6929  -14.5873   27.2521 C   0  0  0  0  0  0  0  0  0  0  0  0
    9.7043  -14.2331   28.1557 O   0  0  0  0  0  0  0  0  0  0  0  0
    8.4000  -15.7867   27.0919 O   0  0  0  0  0  0  0  0  0  0  0  0
  1  5  1  0
  1  2  1  0
  2  3  1  0
  4  3  1  0
  5  4  1  0
  6  8  1  0
  5  6  1  1
  7  6  2  0
  9  8  1  0
 10  9  1  0
 11 10  2  0
 12 10  1  0
 13 16  1  0
 13 12  1  0
 13 14  1  1
 15 14  1  0
 16 17  1  0
 18 16  2  0
M  END
$$$$
