PGC.pdb
     RDKit          3D

 18 18  0  0  1  0  0  0  0  0999 V2000
    7.1890  -14.6526   19.5081 N   0  0  0  0  0  0  0  0  0  0  0  0
    6.8556  -13.4173   18.8738 C   0  0  0  0  0  0  0  0  0  0  0  0
    7.8096  -12.3683   19.3983 C   0  0  0  0  0  0  0  0  0  0  0  0
    8.9275  -13.1661   19.9917 C   0  0  0  0  0  0  0  0  0  0  0  0
    8.5569  -14.6104   19.9213 C   0  0  1  0  0  0  0  0  0  0  0  0
    8.6510  -15.1670   21.3168 C   0  0  0  0  0  0  0  0  0  0  0  0
    9.7518  -15.3258   21.8991 O   0  0  0  0  0  0  0  0  0  0  0  0
    7.4618  -15.5369   22.0297 N   0  0  0  0  0  0  0  0  0  0  0  0
    7.5996  -15.9882   23.3795 C   0  0  0  0  0  0  0  0  0  0  0  0
    8.1006  -15.0153   24.3409 C   0  0  0  0  0  0  0  0  0  0  0  0
    9.3557  -14.8048   24.3176 O   0  0  0  0  0  0  0  0  0  0  0  0
    7.3503  -14.2840   25.2907 N   0  0  0  0  0  0  0  0  0  0  0  0
    7.9490  -13.3475   26.2292 C   0  0  1  0  0  0  0  0  0  0  0  0
    6.9076  -12.3909   26.7049 C   0  0  0  0  0  0  0  0  0  0  0  0
    5.3611  -13.2836   27.1048 S   0  0  0  0  0  0  0  0  0  0  0  0
    8.5421  -14.1030   27.3599 C   0  0  0  0  0  0  0  0  0  0  0  0
    9.3772  -13.4560   28.2812 O   0  0  0  0  0  0  0  0  0  0  0  0
    8.2987  -15.3166   27.4931 O   0  0  0  0  0  0  0  0  0  0  0  0
  1  5  1  0
  1  2  1  0
  2  3  1  0
  4  3  1  0
  5  4  1  0
  6  8  1  0
  5  6  1  1
  7  6  2  0
  9  8  1  0
 10  9  1  0
 11 10  2  0
 12 10  1  0
 13 16  1  0
 13 12  1  0
 13 14  1  1
 15 14  1  0
 16 17  1  0
 18 16  2  0
M  END
$$$$
