PGC.pdb
     RDKit          3D

 18 18  0  0  1  0  0  0  0  0999 V2000
    7.1900  -14.7519   19.5225 N   0  0  0  0  0  0  0  0  0  0  0  0
    6.8566  -13.5652   18.8013 C   0  0  0  0  0  0  0  0  0  0  0  0
    7.7965  -12.4757   19.2652 C   0  0  0  0  0  0  0  0  0  0  0  0
    8.9118  -13.2226   19.9259 C   0  0  0  0  0  0  0  0  0  0  0  0
    8.5519  -14.6712   19.9493 C   0  0  1  0  0  0  0  0  0  0  0  0
    8.6313  -15.1307   21.3806 C   0  0  0  0  0  0  0  0  0  0  0  0
    9.7242  -15.2272   21.9909 O   0  0  0  0  0  0  0  0  0  0  0  0
    7.4367  -15.4766   22.0965 N   0  0  0  0  0  0  0  0  0  0  0  0
    7.5674  -15.9148   23.4513 C   0  0  0  0  0  0  0  0  0  0  0  0
    8.0073  -14.9164   24.4165 C   0  0  0  0  0  0  0  0  0  0  0  0
    9.1050  -14.3299   24.1501 O   0  0  0  0  0  0  0  0  0  0  0  0
    7.3526  -14.5302   25.6091 N   0  0  0  0  0  0  0  0  0  0  0  0
    7.9422  -13.6272   26.5854 C   0  0  1  0  0  0  0  0  0  0  0  0
    6.8575  -12.8754   27.2812 C   0  0  0  0  0  0  0  0  0  0  0  0
    5.5261  -12.4454   26.1019 S   0  0  0  0  0  0  0  0  0  0  0  0
    8.7547  -14.4123   27.5468 C   0  0  0  0  0  0  0  0  0  0  0  0
    9.4915  -13.7614   28.5460 O   0  0  0  0  0  0  0  0  0  0  0  0
    8.7840  -15.6544   27.4679 O   0  0  0  0  0  0  0  0  0  0  0  0
  1  5  1  0
  1  2  1  0
  2  3  1  0
  4  3  1  0
  5  4  1  0
  6  8  1  0
  5  6  1  1
  7  6  2  0
  9  8  1  0
 10  9  1  0
 11 10  2  0
 12 10  1  0
 13 16  1  0
 13 12  1  0
 13 14  1  1
 15 14  1  0
 16 17  1  0
 18 16  2  0
M  END
$$$$
