PGC.pdb
     RDKit          3D

 18 18  0  0  1  0  0  0  0  0999 V2000
    7.4683  -15.2556   19.6901 N   0  0  0  0  0  0  0  0  0  0  0  0
    7.0413  -14.7191   18.4374 C   0  0  0  0  0  0  0  0  0  0  0  0
    7.4806  -13.2732   18.3921 C   0  0  0  0  0  0  0  0  0  0  0  0
    8.5251  -13.1830   19.4595 C   0  0  0  0  0  0  0  0  0  0  0  0
    8.5806  -14.4957   20.1682 C   0  0  1  0  0  0  0  0  0  0  0  0
    8.3772  -14.2233   21.6347 C   0  0  0  0  0  0  0  0  0  0  0  0
    9.2607  -13.6790   22.3413 O   0  0  0  0  0  0  0  0  0  0  0  0
    7.1445  -14.5862   22.2735 N   0  0  0  0  0  0  0  0  0  0  0  0
    6.9614  -14.2150   23.6423 C   0  0  0  0  0  0  0  0  0  0  0  0
    7.4601  -15.1512   24.6406 C   0  0  0  0  0  0  0  0  0  0  0  0
    7.2628  -14.8272   25.8556 O   0  0  0  0  0  0  0  0  0  0  0  0
    8.1349  -16.3724   24.4092 N   0  0  0  0  0  0  0  0  0  0  0  0
    8.5729  -17.2559   25.4786 C   0  0  1  0  0  0  0  0  0  0  0  0
    7.9161  -18.5861   25.3207 C   0  0  0  0  0  0  0  0  0  0  0  0
    6.6858  -18.8482   26.6497 S   0  0  0  0  0  0  0  0  0  0  0  0
   10.0508  -17.3772   25.4358 C   0  0  0  0  0  0  0  0  0  0  0  0
   10.7331  -18.0638   26.4497 O   0  0  0  0  0  0  0  0  0  0  0  0
   10.6899  -16.8681   24.4965 O   0  0  0  0  0  0  0  0  0  0  0  0
  1  5  1  0
  1  2  1  0
  2  3  1  0
  4  3  1  0
  5  4  1  0
  6  8  1  0
  5  6  1  1
  7  6  2  0
  9  8  1  0
 10  9  1  0
 11 10  2  0
 12 10  1  0
 13 16  1  0
 13 12  1  0
 13 14  1  6
 15 14  1  0
 16 17  1  0
 18 16  2  0
M  END
$$$$
