SMD.pdb
     RDKit          3D

 23 22  0  0  1  0  0  0  0  0999 V2000
   19.4161  -13.0916  -18.0997 O   0  0  0  0  0  0  0  0  0  0  0  0
   20.0475  -12.0357  -17.4458 C   0  0  0  0  0  0  0  0  0  0  0  0
   21.5088  -12.3418  -17.1866 C   0  0  2  0  0  0  0  0  0  0  0  0
   21.5651  -13.6243  -16.5163 N   0  0  0  0  0  0  0  0  0  0  0  0
   22.1116  -11.2709  -16.3501 C   0  0  0  0  0  0  0  0  0  0  0  0
   21.7475  -11.0560  -15.1511 O   0  0  0  0  0  0  0  0  0  0  0  0
   28.0386  -12.5727  -15.1984 C   0  0  0  0  0  0  0  0  0  0  0  0
   27.5094  -11.0345  -16.0007 S   0  0  0  0  0  0  0  0  0  0  0  0
   25.7284  -10.8050  -15.6505 C   0  0  0  0  0  0  0  0  0  0  0  0
   25.2582   -9.5227  -16.3383 C   0  0  0  0  0  0  0  0  0  0  0  0
   23.7643   -9.3961  -16.0995 C   0  0  2  0  0  0  0  0  0  0  0  0
   23.1282  -10.4423  -16.8727 N   0  0  0  0  0  0  0  0  0  0  0  0
   23.2576   -8.0604  -16.4284 C   0  0  0  0  0  0  0  0  0  0  0  0
   22.9729   -7.7967  -17.6205 O   0  0  0  0  0  0  0  0  0  0  0  0
   23.0913   -7.0834  -15.4218 N   0  0  0  0  0  0  0  0  0  0  0  0
   22.4740   -5.8185  -15.7480 C   0  0  1  0  0  0  0  0  0  0  0  0
   21.0864   -6.0524  -16.2975 C   0  0  0  0  0  0  0  0  0  0  0  0
   20.4326   -4.7796  -16.5876 C   0  0  0  0  0  0  0  0  0  0  0  0
   19.5858   -4.2946  -15.7930 O   0  0  0  0  0  0  0  0  0  0  0  0
   22.4576   -4.9931  -14.5162 C   0  0  0  0  0  0  0  0  0  0  0  0
   22.1600   -3.6278  -14.5011 O   0  0  0  0  0  0  0  0  0  0  0  0
   20.7215   -4.0502  -17.7586 O   0  0  0  0  0  0  0  0  0  0  0  0
   22.7245   -5.5153  -13.3853 O   0  0  0  0  0  0  0  0  0  0  0  0
  2  1  1  0
  3  2  1  0
  3  4  1  1
  5  6  2  0
  5  3  1  0
  7  8  1  0
  9  8  1  0
  9 10  1  0
 11 10  1  6
 11 13  1  0
 11 12  1  0
 12  5  1  0
 13 15  1  0
 14 13  2  0
 15 16  1  0
 16 20  1  0
 16 17  1  1
 18 17  1  0
 18 19  2  0
 20 23  2  0
 20 21  1  0
 22 18  1  0
M  END
$$$$
