SMD.pdb
     RDKit          3D

 23 22  0  0  1  0  0  0  0  0999 V2000
   20.7744  -17.3265  -15.7440 O   0  0  0  0  0  0  0  0  0  0  0  0
   21.1112  -16.0864  -15.2055 C   0  0  0  0  0  0  0  0  0  0  0  0
   21.2410  -15.0324  -16.2863 C   0  0  2  0  0  0  0  0  0  0  0  0
   22.1047  -15.5766  -17.3135 N   0  0  0  0  0  0  0  0  0  0  0  0
   21.8084  -13.7838  -15.7127 C   0  0  0  0  0  0  0  0  0  0  0  0
   21.2469  -13.1534  -14.7621 O   0  0  0  0  0  0  0  0  0  0  0  0
   28.1558  -12.7512  -15.3739 C   0  0  0  0  0  0  0  0  0  0  0  0
   27.5971  -11.0525  -15.6774 S   0  0  0  0  0  0  0  0  0  0  0  0
   25.8086  -10.9760  -15.2996 C   0  0  0  0  0  0  0  0  0  0  0  0
   25.1154  -12.1544  -15.9846 C   0  0  0  0  0  0  0  0  0  0  0  0
   23.6326  -12.0575  -15.6734 C   0  0  2  0  0  0  0  0  0  0  0  0
   23.0137  -13.2486  -16.2168 N   0  0  0  0  0  0  0  0  0  0  0  0
   23.0337  -10.8224  -16.1879 C   0  0  0  0  0  0  0  0  0  0  0  0
   22.7248  -10.7582  -17.4013 O   0  0  0  0  0  0  0  0  0  0  0  0
   22.8066   -9.7202  -15.3342 N   0  0  0  0  0  0  0  0  0  0  0  0
   22.1280   -8.5501  -15.8423 C   0  0  1  0  0  0  0  0  0  0  0  0
   20.7985   -8.3856  -15.1443 C   0  0  0  0  0  0  0  0  0  0  0  0
   20.1238   -7.1784  -15.6122 C   0  0  0  0  0  0  0  0  0  0  0  0
   19.8733   -7.0130  -16.8343 O   0  0  0  0  0  0  0  0  0  0  0  0
   23.0198   -7.3842  -15.6320 C   0  0  0  0  0  0  0  0  0  0  0  0
   24.3340   -7.4863  -15.1680 O   0  0  0  0  0  0  0  0  0  0  0  0
   19.7299   -6.1595  -14.7216 O   0  0  0  0  0  0  0  0  0  0  0  0
   22.6071   -6.2035  -15.8739 O   0  0  0  0  0  0  0  0  0  0  0  0
  2  1  1  0
  3  2  1  0
  3  4  1  6
  5  6  2  0
  5  3  1  0
  7  8  1  0
  9  8  1  0
  9 10  1  0
 11 10  1  6
 11 13  1  0
 11 12  1  0
 12  5  1  0
 13 15  1  0
 14 13  2  0
 15 16  1  0
 16 20  1  0
 16 17  1  1
 18 17  1  0
 18 19  2  0
 20 23  2  0
 20 21  1  0
 22 18  1  0
M  END
$$$$
