SMD.pdb
     RDKit          3D

 23 22  0  0  1  0  0  0  0  0999 V2000
   27.2310  -18.5811  -15.7009 O   0  0  0  0  0  0  0  0  0  0  0  0
   27.6611  -19.7088  -16.3968 C   0  0  0  0  0  0  0  0  0  0  0  0
   28.1974  -20.7675  -15.4547 C   0  0  2  0  0  0  0  0  0  0  0  0
   28.5675  -21.9113  -16.2621 N   0  0  0  0  0  0  0  0  0  0  0  0
   27.1596  -21.1292  -14.4535 C   0  0  0  0  0  0  0  0  0  0  0  0
   26.2341  -21.9646  -14.7021 O   0  0  0  0  0  0  0  0  0  0  0  0
   25.3589  -20.9081   -6.8110 C   0  0  0  0  0  0  0  0  0  0  0  0
   26.5858  -20.5251   -8.0908 S   0  0  0  0  0  0  0  0  0  0  0  0
   25.8234  -20.8707   -9.7177 C   0  0  0  0  0  0  0  0  0  0  0  0
   26.8559  -20.5869  -10.8094 C   0  0  0  0  0  0  0  0  0  0  0  0
   26.1977  -20.8714  -12.1476 C   0  0  2  0  0  0  0  0  0  0  0  0
   27.1705  -20.5436  -13.1689 N   0  0  0  0  0  0  0  0  0  0  0  0
   24.9348  -20.1460  -12.3139 C   0  0  0  0  0  0  0  0  0  0  0  0
   24.9696  -18.9282  -12.6098 O   0  0  0  0  0  0  0  0  0  0  0  0
   23.6965  -20.8043  -12.1447 N   0  0  0  0  0  0  0  0  0  0  0  0
   22.5180  -20.2918  -12.8051 C   0  0  1  0  0  0  0  0  0  0  0  0
   22.7357  -20.2733  -14.2998 C   0  0  0  0  0  0  0  0  0  0  0  0
   21.5468  -19.7697  -14.9812 C   0  0  0  0  0  0  0  0  0  0  0  0
   20.5603  -19.3444  -14.3258 O   0  0  0  0  0  0  0  0  0  0  0  0
   21.3731  -21.1500  -12.4157 C   0  0  0  0  0  0  0  0  0  0  0  0
   20.0613  -20.6842  -12.2916 O   0  0  0  0  0  0  0  0  0  0  0  0
   21.4577  -19.7402  -16.3876 O   0  0  0  0  0  0  0  0  0  0  0  0
   21.5479  -22.3877  -12.1700 O   0  0  0  0  0  0  0  0  0  0  0  0
  2  1  1  0
  3  2  1  0
  3  4  1  6
  5  6  2  0
  5  3  1  0
  7  8  1  0
  9  8  1  0
  9 10  1  0
 11 10  1  1
 11 13  1  0
 11 12  1  0
 12  5  1  0
 13 15  1  0
 14 13  2  0
 15 16  1  0
 16 20  1  0
 16 17  1  6
 18 17  1  0
 18 19  2  0
 20 23  2  0
 20 21  1  0
 22 18  1  0
M  END
$$$$
