SMD.pdb
     RDKit          3D

 23 22  0  0  1  0  0  0  0  0999 V2000
   24.2480  -21.1596   -9.1850 O   0  0  0  0  0  0  0  0  0  0  0  0
   25.4914  -21.7082   -9.4918 C   0  0  0  0  0  0  0  0  0  0  0  0
   26.4607  -20.6457   -9.9689 C   0  0  2  0  0  0  0  0  0  0  0  0
   26.4475  -19.5819   -8.9865 N   0  0  0  0  0  0  0  0  0  0  0  0
   26.0491  -20.1468  -11.3075 C   0  0  0  0  0  0  0  0  0  0  0  0
   25.3389  -19.1031  -11.4573 O   0  0  0  0  0  0  0  0  0  0  0  0
   27.7786  -16.5188  -15.5170 C   0  0  0  0  0  0  0  0  0  0  0  0
   26.8093  -18.0335  -15.2807 S   0  0  0  0  0  0  0  0  0  0  0  0
   27.9709  -19.3791  -14.8479 C   0  0  0  0  0  0  0  0  0  0  0  0
   27.1833  -20.6850  -14.7357 C   0  0  0  0  0  0  0  0  0  0  0  0
   26.0123  -20.4350  -13.8024 C   0  0  2  0  0  0  0  0  0  0  0  0
   26.4428  -20.8314  -12.4778 N   0  0  0  0  0  0  0  0  0  0  0  0
   24.7958  -21.1294  -14.2346 C   0  0  0  0  0  0  0  0  0  0  0  0
   24.5941  -22.3018  -13.8389 O   0  0  0  0  0  0  0  0  0  0  0  0
   23.8634  -20.4918  -15.0828 N   0  0  0  0  0  0  0  0  0  0  0  0
   22.4761  -20.8943  -15.0512 C   0  0  1  0  0  0  0  0  0  0  0  0
   21.9102  -20.6738  -13.6681 C   0  0  0  0  0  0  0  0  0  0  0  0
   20.5015  -21.0549  -13.6277 C   0  0  0  0  0  0  0  0  0  0  0  0
   19.7016  -20.4828  -12.8425 O   0  0  0  0  0  0  0  0  0  0  0  0
   21.7552  -20.1110  -16.0835 C   0  0  0  0  0  0  0  0  0  0  0  0
   21.6099  -18.7217  -16.0424 O   0  0  0  0  0  0  0  0  0  0  0  0
   19.9862  -22.0696  -14.4594 O   0  0  0  0  0  0  0  0  0  0  0  0
   21.2213  -20.6953  -17.0816 O   0  0  0  0  0  0  0  0  0  0  0  0
  2  1  1  0
  3  2  1  0
  3  4  1  1
  5  6  2  0
  5  3  1  0
  7  8  1  0
  9  8  1  0
  9 10  1  0
 11 10  1  6
 11 13  1  0
 11 12  1  0
 12  5  1  0
 13 15  1  0
 14 13  2  0
 15 16  1  0
 16 20  1  0
 16 17  1  1
 18 17  1  0
 18 19  2  0
 20 23  2  0
 20 21  1  0
 22 18  1  0
M  END
$$$$
