SMD.pdb
     RDKit          3D

 23 22  0  0  1  0  0  0  0  0999 V2000
   16.7620  -12.7789  -18.4352 O   0  0  0  0  0  0  0  0  0  0  0  0
   17.7334  -11.9371  -17.8978 C   0  0  0  0  0  0  0  0  0  0  0  0
   19.0391  -12.6730  -17.6746 C   0  0  2  0  0  0  0  0  0  0  0  0
   18.7296  -13.8799  -16.9366 N   0  0  0  0  0  0  0  0  0  0  0  0
   19.9863  -11.8098  -16.9210 C   0  0  0  0  0  0  0  0  0  0  0  0
   19.6869  -11.2823  -15.8037 O   0  0  0  0  0  0  0  0  0  0  0  0
   26.6160  -10.1398  -14.5568 C   0  0  0  0  0  0  0  0  0  0  0  0
   25.5128  -11.1482  -15.5843 S   0  0  0  0  0  0  0  0  0  0  0  0
   24.5733  -10.0170  -16.6730 C   0  0  0  0  0  0  0  0  0  0  0  0
   23.5475  -10.8362  -17.4572 C   0  0  0  0  0  0  0  0  0  0  0  0
   22.1923  -10.6138  -16.8101 C   0  0  2  0  0  0  0  0  0  0  0  0
   21.2745  -11.5440  -17.4340 N   0  0  0  0  0  0  0  0  0  0  0  0
   21.7459   -9.2214  -16.9138 C   0  0  0  0  0  0  0  0  0  0  0  0
   21.2714   -8.8163  -18.0013 O   0  0  0  0  0  0  0  0  0  0  0  0
   21.8468   -8.3468  -15.8091 N   0  0  0  0  0  0  0  0  0  0  0  0
   21.2858   -7.0180  -15.8955 C   0  0  1  0  0  0  0  0  0  0  0  0
   19.7948   -7.1052  -16.1212 C   0  0  0  0  0  0  0  0  0  0  0  0
   19.1885   -5.7799  -16.0349 C   0  0  0  0  0  0  0  0  0  0  0  0
   18.2761   -5.5418  -15.2015 O   0  0  0  0  0  0  0  0  0  0  0  0
   21.6222   -6.3036  -14.6404 C   0  0  0  0  0  0  0  0  0  0  0  0
   22.3675   -6.8685  -13.6019 O   0  0  0  0  0  0  0  0  0  0  0  0
   19.5975   -4.7240  -16.8743 O   0  0  0  0  0  0  0  0  0  0  0  0
   21.2302   -5.1059  -14.4540 O   0  0  0  0  0  0  0  0  0  0  0  0
  2  1  1  0
  3  2  1  0
  3  4  1  1
  5  6  2  0
  5  3  1  0
  7  8  1  0
  9  8  1  0
  9 10  1  0
 11 10  1  6
 11 13  1  0
 11 12  1  0
 12  5  1  0
 13 15  1  0
 14 13  2  0
 15 16  1  0
 16 20  1  0
 16 17  1  1
 18 17  1  0
 18 19  2  0
 20 23  2  0
 20 21  1  0
 22 18  1  0
M  END
$$$$
