SMD.pdb
     RDKit          3D

 23 22  0  0  1  0  0  0  0  0999 V2000
   18.1920  -10.3447  -18.1605 O   0  0  0  0  0  0  0  0  0  0  0  0
   18.1130  -11.6488  -17.6765 C   0  0  0  0  0  0  0  0  0  0  0  0
   19.4372  -12.3715  -17.8194 C   0  0  2  0  0  0  0  0  0  0  0  0
   19.2555  -13.7067  -17.2889 N   0  0  0  0  0  0  0  0  0  0  0  0
   20.4983  -11.6387  -17.0796 C   0  0  0  0  0  0  0  0  0  0  0  0
   20.5531  -11.6169  -15.8097 O   0  0  0  0  0  0  0  0  0  0  0  0
   26.5597   -9.9958  -14.5213 C   0  0  0  0  0  0  0  0  0  0  0  0
   25.2924  -10.8345  -15.5113 S   0  0  0  0  0  0  0  0  0  0  0  0
   24.9382   -9.7878  -16.9695 C   0  0  0  0  0  0  0  0  0  0  0  0
   23.8309  -10.4522  -17.7885 C   0  0  0  0  0  0  0  0  0  0  0  0
   22.5084  -10.1331  -17.1146 C   0  0  2  0  0  0  0  0  0  0  0  0
   21.4985  -10.9298  -17.7797 N   0  0  0  0  0  0  0  0  0  0  0  0
   22.2034   -8.6994  -17.1346 C   0  0  0  0  0  0  0  0  0  0  0  0
   21.9154   -8.1561  -18.2272 O   0  0  0  0  0  0  0  0  0  0  0  0
   22.2322   -7.9386  -15.9448 N   0  0  0  0  0  0  0  0  0  0  0  0
   21.8400   -6.5483  -15.9753 C   0  0  1  0  0  0  0  0  0  0  0  0
   20.4745   -6.3875  -15.3496 C   0  0  0  0  0  0  0  0  0  0  0  0
   20.0450   -4.9938  -15.4162 C   0  0  0  0  0  0  0  0  0  0  0  0
   20.5754   -4.1944  -16.2307 O   0  0  0  0  0  0  0  0  0  0  0  0
   22.8799   -5.7701  -15.2598 C   0  0  0  0  0  0  0  0  0  0  0  0
   23.3065   -4.4991  -15.6543 O   0  0  0  0  0  0  0  0  0  0  0  0
   19.0284   -4.4928  -14.5782 O   0  0  0  0  0  0  0  0  0  0  0  0
   23.4444   -6.2476  -14.2224 O   0  0  0  0  0  0  0  0  0  0  0  0
  2  1  1  0
  3  2  1  0
  3  4  1  1
  5  6  2  0
  5  3  1  0
  7  8  1  0
  9  8  1  0
  9 10  1  0
 11 10  1  6
 11 13  1  0
 11 12  1  0
 12  5  1  0
 13 15  1  0
 14 13  2  0
 15 16  1  0
 16 20  1  0
 16 17  1  1
 18 17  1  0
 18 19  2  0
 20 23  2  0
 20 21  1  0
 22 18  1  0
M  END
$$$$
