SMD.pdb
     RDKit          3D

 23 22  0  0  1  0  0  0  0  0999 V2000
   17.5262  -12.5969  -16.1192 O   0  0  0  0  0  0  0  0  0  0  0  0
   17.1710  -11.3760  -16.6886 C   0  0  0  0  0  0  0  0  0  0  0  0
   18.3238  -10.7733  -17.4657 C   0  0  2  0  0  0  0  0  0  0  0  0
   18.8938  -11.8306  -18.2748 N   0  0  0  0  0  0  0  0  0  0  0  0
   19.3309  -10.2121  -16.5271 C   0  0  0  0  0  0  0  0  0  0  0  0
   19.0456   -9.8981  -15.3287 O   0  0  0  0  0  0  0  0  0  0  0  0
   26.9457  -10.2125  -14.8664 C   0  0  0  0  0  0  0  0  0  0  0  0
   25.6374  -10.7255  -16.0131 S   0  0  0  0  0  0  0  0  0  0  0  0
   24.0913   -9.8872  -15.5089 C   0  0  0  0  0  0  0  0  0  0  0  0
   22.9733  -10.3138  -16.4609 C   0  0  0  0  0  0  0  0  0  0  0  0
   21.7128   -9.5755  -16.0474 C   0  0  2  0  0  0  0  0  0  0  0  0
   20.6630  -10.0063  -16.9470 N   0  0  0  0  0  0  0  0  0  0  0  0
   21.8940   -8.1208  -16.0429 C   0  0  0  0  0  0  0  0  0  0  0  0
   22.0438   -7.5253  -17.1360 O   0  0  0  0  0  0  0  0  0  0  0  0
   21.9004   -7.3979  -14.8294 N   0  0  0  0  0  0  0  0  0  0  0  0
   21.8938   -5.9533  -14.8576 C   0  0  1  0  0  0  0  0  0  0  0  0
   20.7121   -5.4621  -15.6601 C   0  0  0  0  0  0  0  0  0  0  0  0
   20.6621   -4.0030  -15.6516 C   0  0  0  0  0  0  0  0  0  0  0  0
   21.7187   -3.3226  -15.5857 O   0  0  0  0  0  0  0  0  0  0  0  0
   21.8568   -5.4746  -13.4546 C   0  0  0  0  0  0  0  0  0  0  0  0
   21.8751   -4.1243  -13.0948 O   0  0  0  0  0  0  0  0  0  0  0  0
   19.4393   -3.3049  -15.7161 O   0  0  0  0  0  0  0  0  0  0  0  0
   21.8063   -6.3050  -12.4900 O   0  0  0  0  0  0  0  0  0  0  0  0
  2  1  1  0
  3  2  1  0
  3  4  1  1
  5  6  2  0
  5  3  1  0
  7  8  1  0
  9  8  1  0
  9 10  1  0
 11 10  1  6
 11 13  1  0
 11 12  1  0
 12  5  1  0
 13 15  1  0
 14 13  2  0
 15 16  1  0
 16 20  1  0
 16 17  1  6
 18 17  1  0
 18 19  2  0
 20 23  2  0
 20 21  1  0
 22 18  1  0
M  END
$$$$
