SMD.pdb
     RDKit          3D

 23 22  0  0  1  0  0  0  0  0999 V2000
   20.2463   -9.9940  -13.1975 O   0  0  0  0  0  0  0  0  0  0  0  0
   19.1332   -9.2051  -12.9151 C   0  0  0  0  0  0  0  0  0  0  0  0
   18.0008  -10.0332  -12.3424 C   0  0  2  0  0  0  0  0  0  0  0  0
   17.5851  -10.9612  -13.3736 N   0  0  0  0  0  0  0  0  0  0  0  0
   16.8798   -9.1468  -11.9329 C   0  0  0  0  0  0  0  0  0  0  0  0
   16.1639   -8.5193  -12.7755 O   0  0  0  0  0  0  0  0  0  0  0  0
   11.4129   -7.9376   -6.5480 C   0  0  0  0  0  0  0  0  0  0  0  0
   12.7985   -8.9576   -7.1220 S   0  0  0  0  0  0  0  0  0  0  0  0
   13.6277   -8.0597   -8.4835 C   0  0  0  0  0  0  0  0  0  0  0  0
   14.8557   -8.8606   -8.9181 C   0  0  0  0  0  0  0  0  0  0  0  0
   15.4685   -8.1485  -10.1106 C   0  0  2  0  0  0  0  0  0  0  0  0
   16.5696   -8.9710  -10.5669 N   0  0  0  0  0  0  0  0  0  0  0  0
   15.8790   -6.7778   -9.7919 C   0  0  0  0  0  0  0  0  0  0  0  0
   16.8913   -6.5996   -9.0741 O   0  0  0  0  0  0  0  0  0  0  0  0
   15.1488   -5.6729  -10.2832 N   0  0  0  0  0  0  0  0  0  0  0  0
   15.5825   -4.3314   -9.9669 C   0  0  1  0  0  0  0  0  0  0  0  0
   16.1926   -3.6886  -11.1902 C   0  0  0  0  0  0  0  0  0  0  0  0
   16.4804   -2.2802  -10.9351 C   0  0  0  0  0  0  0  0  0  0  0  0
   16.1965   -1.7550   -9.8272 O   0  0  0  0  0  0  0  0  0  0  0  0
   14.4042   -3.5819   -9.4682 C   0  0  0  0  0  0  0  0  0  0  0  0
   13.1248   -4.1328   -9.3560 O   0  0  0  0  0  0  0  0  0  0  0  0
   17.0823   -1.4602  -11.9109 O   0  0  0  0  0  0  0  0  0  0  0  0
   14.5171   -2.3643   -9.1113 O   0  0  0  0  0  0  0  0  0  0  0  0
  2  1  1  0
  3  2  1  0
  3  4  1  6
  5  6  2  0
  5  3  1  0
  7  8  1  0
  9  8  1  0
  9 10  1  0
 11 10  1  1
 11 13  1  0
 11 12  1  0
 12  5  1  0
 13 15  1  0
 14 13  2  0
 15 16  1  0
 16 20  1  0
 16 17  1  6
 18 17  1  0
 18 19  2  0
 20 23  2  0
 20 21  1  0
 22 18  1  0
M  END
$$$$
