TLV.pdb
     RDKit          3D

 23 22  0  0  1  0  0  0  0  0999 V2000
   18.4111  -10.8050  -14.3646 C   0  0  0  0  0  0  0  0  0  0  0  0
   17.8599  -11.1416  -15.7129 C   0  0  1  0  0  0  0  0  0  0  0  0
   17.4276  -12.4580  -15.7953 O   0  0  0  0  0  0  0  0  0  0  0  0
   16.7579  -10.1577  -16.0444 C   0  0  2  0  0  0  0  0  0  0  0  0
   16.0963  -10.4671  -17.2767 N   0  0  0  0  0  0  0  0  0  0  0  0
   17.2633   -8.7683  -16.0828 C   0  0  0  0  0  0  0  0  0  0  0  0
   17.9178   -8.3679  -17.0734 O   0  0  0  0  0  0  0  0  0  0  0  0
   14.3953   -4.3439  -15.2561 C   0  0  0  0  0  0  0  0  0  0  0  0
   15.5277   -5.2190  -15.7842 C   0  0  1  0  0  0  0  0  0  0  0  0
   16.2374   -4.4236  -16.8482 C   0  0  0  0  0  0  0  0  0  0  0  0
   16.4052   -5.5615  -14.6213 C   0  0  0  0  0  0  0  0  0  0  0  0
   17.4807   -6.5440  -15.0045 C   0  0  2  0  0  0  0  0  0  0  0  0
   17.0052   -7.9035  -15.0049 N   0  0  0  0  0  0  0  0  0  0  0  0
   18.6778   -6.4538  -14.1666 C   0  0  0  0  0  0  0  0  0  0  0  0
   18.6061   -6.8546  -12.9779 O   0  0  0  0  0  0  0  0  0  0  0  0
   21.8415   -8.1956  -14.0595 C   0  0  0  0  0  0  0  0  0  0  0  0
   22.1779   -6.7392  -14.1123 C   0  0  1  0  0  0  0  0  0  0  0  0
   22.7895   -6.4036  -15.4347 C   0  0  0  0  0  0  0  0  0  0  0  0
   21.0154   -5.8544  -13.7435 C   0  0  2  0  0  0  0  0  0  0  0  0
   19.9275   -5.9237  -14.6581 N   0  0  0  0  0  0  0  0  0  0  0  0
   21.4723   -4.4441  -13.6254 C   0  0  0  0  0  0  0  0  0  0  0  0
   22.2326   -4.0526  -12.5404 O   0  0  0  0  0  0  0  0  0  0  0  0
   21.1475   -3.6456  -14.5277 O   0  0  0  0  0  0  0  0  0  0  0  0
  2  1  1  1
  2  3  1  0
  4  6  1  0
  4  2  1  0
  4  5  1  6
  6  7  2  0
  9  8  1  1
  9 10  1  0
 11  9  1  0
 12 11  1  1
 13 12  1  0
 13  6  1  0
 14 20  1  0
 14 12  1  0
 15 14  2  0
 17 16  1  6
 18 17  1  0
 19 17  1  0
 19 20  1  6
 21 19  1  0
 21 22  1  0
 23 21  2  0
M  END
$$$$
