TLV.pdb
     RDKit          3D

 23 22  0  0  1  0  0  0  0  0999 V2000
   27.0179  -18.6674  -16.5737 C   0  0  0  0  0  0  0  0  0  0  0  0
   27.5697  -19.9021  -17.2107 C   0  0  1  0  0  0  0  0  0  0  0  0
   28.5424  -19.6196  -18.1597 O   0  0  0  0  0  0  0  0  0  0  0  0
   28.0846  -20.8195  -16.1218 C   0  0  2  0  0  0  0  0  0  0  0  0
   28.6489  -22.0288  -16.6424 N   0  0  0  0  0  0  0  0  0  0  0  0
   27.0280  -21.1428  -15.1388 C   0  0  0  0  0  0  0  0  0  0  0  0
   26.1576  -22.0006  -15.4153 O   0  0  0  0  0  0  0  0  0  0  0  0
   25.3849  -22.1723  -10.2771 C   0  0  0  0  0  0  0  0  0  0  0  0
   25.3888  -20.6629  -10.4972 C   0  0  1  0  0  0  0  0  0  0  0  0
   25.6626  -20.0252   -9.1605 C   0  0  0  0  0  0  0  0  0  0  0  0
   26.4412  -20.3645  -11.5185 C   0  0  0  0  0  0  0  0  0  0  0  0
   26.0198  -20.8006  -12.8974 C   0  0  2  0  0  0  0  0  0  0  0  0
   27.0070  -20.4838  -13.8971 N   0  0  0  0  0  0  0  0  0  0  0  0
   24.7254  -20.2559  -13.3107 C   0  0  0  0  0  0  0  0  0  0  0  0
   24.6238  -19.0137  -13.4703 O   0  0  0  0  0  0  0  0  0  0  0  0
   23.0069  -20.1671  -16.3628 C   0  0  0  0  0  0  0  0  0  0  0  0
   22.0099  -20.7245  -15.3971 C   0  0  1  0  0  0  0  0  0  0  0  0
   21.7656  -22.1698  -15.6920 C   0  0  0  0  0  0  0  0  0  0  0  0
   22.3712  -20.4550  -13.9595 C   0  0  2  0  0  0  0  0  0  0  0  0
   23.5715  -21.0931  -13.5389 N   0  0  0  0  0  0  0  0  0  0  0  0
   21.2532  -20.8717  -13.0716 C   0  0  0  0  0  0  0  0  0  0  0  0
   20.1114  -20.0984  -12.9890 O   0  0  0  0  0  0  0  0  0  0  0  0
   21.3861  -21.9264  -12.4180 O   0  0  0  0  0  0  0  0  0  0  0  0
  2  1  1  1
  2  3  1  0
  4  6  1  0
  4  2  1  0
  4  5  1  6
  6  7  2  0
  9  8  1  1
  9 10  1  0
 11  9  1  0
 12 11  1  1
 13 12  1  0
 13  6  1  0
 14 20  1  0
 14 12  1  0
 15 14  2  0
 17 16  1  6
 18 17  1  0
 19 17  1  0
 19 20  1  1
 21 19  1  0
 21 22  1  0
 23 21  2  0
M  END
$$$$
