TLV.pdb
     RDKit          3D

 23 22  0  0  1  0  0  0  0  0999 V2000
   27.2270  -18.6036  -13.5727 C   0  0  0  0  0  0  0  0  0  0  0  0
   27.9913  -19.8000  -14.0412 C   0  0  1  0  0  0  0  0  0  0  0  0
   28.9303  -19.4820  -15.0127 O   0  0  0  0  0  0  0  0  0  0  0  0
   28.6195  -20.4737  -12.8397 C   0  0  2  0  0  0  0  0  0  0  0  0
   29.4821  -21.5574  -13.2050 N   0  0  0  0  0  0  0  0  0  0  0  0
   27.5944  -20.9497  -11.8857 C   0  0  0  0  0  0  0  0  0  0  0  0
   27.0305  -22.0529  -12.0723 O   0  0  0  0  0  0  0  0  0  0  0  0
   27.4561  -19.0120   -6.7189 C   0  0  0  0  0  0  0  0  0  0  0  0
   27.4139  -19.9907   -7.8882 C   0  0  1  0  0  0  0  0  0  0  0  0
   27.4916  -21.3765   -7.3036 C   0  0  0  0  0  0  0  0  0  0  0  0
   26.1423  -19.7372   -8.6355 C   0  0  0  0  0  0  0  0  0  0  0  0
   26.1149  -20.4666   -9.9531 C   0  0  2  0  0  0  0  0  0  0  0  0
   27.2585  -20.1591  -10.7728 N   0  0  0  0  0  0  0  0  0  0  0  0
   24.8933  -20.2304  -10.7246 C   0  0  0  0  0  0  0  0  0  0  0  0
   24.7519  -19.1191  -11.2936 O   0  0  0  0  0  0  0  0  0  0  0  0
   21.5953  -21.5164  -13.8658 C   0  0  0  0  0  0  0  0  0  0  0  0
   22.7591  -21.8033  -12.9711 C   0  0  1  0  0  0  0  0  0  0  0  0
   24.0310  -21.7538  -13.7556 C   0  0  0  0  0  0  0  0  0  0  0  0
   22.7778  -20.9395  -11.7369 C   0  0  2  0  0  0  0  0  0  0  0  0
   23.8546  -21.2251  -10.8515 N   0  0  0  0  0  0  0  0  0  0  0  0
   21.4892  -21.0746  -11.0069 C   0  0  0  0  0  0  0  0  0  0  0  0
   20.3313  -20.5477  -11.5456 O   0  0  0  0  0  0  0  0  0  0  0  0
   21.4965  -21.6710   -9.9107 O   0  0  0  0  0  0  0  0  0  0  0  0
  2  1  1  1
  2  3  1  0
  4  6  1  0
  4  2  1  0
  4  5  1  6
  6  7  2  0
  9  8  1  1
  9 10  1  0
 11  9  1  0
 12 11  1  1
 13 12  1  0
 13  6  1  0
 14 20  1  0
 14 12  1  0
 15 14  2  0
 17 16  1  6
 18 17  1  0
 19 17  1  0
 19 20  1  1
 21 19  1  0
 21 22  1  0
 23 21  2  0
M  END
$$$$
