TLV.pdb
     RDKit          3D

 23 22  0  0  1  0  0  0  0  0999 V2000
   16.2236  -12.0445  -18.7580 C   0  0  0  0  0  0  0  0  0  0  0  0
   17.4973  -12.8263  -18.7219 C   0  0  1  0  0  0  0  0  0  0  0  0
   17.4405  -13.9688  -19.5080 O   0  0  0  0  0  0  0  0  0  0  0  0
   18.6366  -11.9136  -19.1237 C   0  0  2  0  0  0  0  0  0  0  0  0
   19.8050  -12.6372  -19.5278 N   0  0  0  0  0  0  0  0  0  0  0  0
   18.9833  -10.9679  -18.0408 C   0  0  0  0  0  0  0  0  0  0  0  0
   18.0828  -10.2994  -17.4820 O   0  0  0  0  0  0  0  0  0  0  0  0
   21.3195   -9.7237  -13.5987 C   0  0  0  0  0  0  0  0  0  0  0  0
   22.3695   -9.6601  -14.7034 C   0  0  1  0  0  0  0  0  0  0  0  0
   23.6789  -10.0803  -14.0890 C   0  0  0  0  0  0  0  0  0  0  0  0
   21.9158  -10.5695  -15.8019 C   0  0  0  0  0  0  0  0  0  0  0  0
   20.6853  -10.0408  -16.4913 C   0  0  2  0  0  0  0  0  0  0  0  0
   20.3245  -10.8247  -17.6443 N   0  0  0  0  0  0  0  0  0  0  0  0
   20.7951   -8.6341  -16.8817 C   0  0  0  0  0  0  0  0  0  0  0  0
   21.6889   -8.3107  -17.7035 O   0  0  0  0  0  0  0  0  0  0  0  0
   18.9184   -6.4848  -19.0286 C   0  0  0  0  0  0  0  0  0  0  0  0
   18.9749   -5.7917  -17.7044 C   0  0  1  0  0  0  0  0  0  0  0  0
   17.6352   -5.8437  -17.0427 C   0  0  0  0  0  0  0  0  0  0  0  0
   20.0986   -6.2857  -16.8308 C   0  0  2  0  0  0  0  0  0  0  0  0
   19.9169   -7.6153  -16.3574 N   0  0  0  0  0  0  0  0  0  0  0  0
   20.2779   -5.3695  -15.6731 C   0  0  0  0  0  0  0  0  0  0  0  0
   19.9704   -5.8002  -14.3970 O   0  0  0  0  0  0  0  0  0  0  0  0
   20.7085   -4.2199  -15.8970 O   0  0  0  0  0  0  0  0  0  0  0  0
  2  1  1  6
  2  3  1  0
  4  6  1  0
  4  2  1  0
  4  5  1  1
  6  7  2  0
  9  8  1  1
  9 10  1  0
 11  9  1  0
 12 11  1  6
 13 12  1  0
 13  6  1  0
 14 20  1  0
 14 12  1  0
 15 14  2  0
 17 16  1  6
 18 17  1  0
 19 17  1  0
 19 20  1  1
 21 19  1  0
 21 22  1  0
 23 21  2  0
M  END
$$$$
