TLV.pdb
     RDKit          3D

 23 22  0  0  1  0  0  0  0  0999 V2000
   27.4752  -22.5220  -15.9353 C   0  0  0  0  0  0  0  0  0  0  0  0
   28.0949  -21.4353  -15.1170 C   0  0  1  0  0  0  0  0  0  0  0  0
   29.2350  -20.9101  -15.7095 O   0  0  0  0  0  0  0  0  0  0  0  0
   27.0491  -20.3730  -14.8519 C   0  0  2  0  0  0  0  0  0  0  0  0
   27.5990  -19.1996  -14.2414 N   0  0  0  0  0  0  0  0  0  0  0  0
   25.9412  -20.8959  -14.0232 C   0  0  0  0  0  0  0  0  0  0  0  0
   25.2698  -21.8755  -14.4225 O   0  0  0  0  0  0  0  0  0  0  0  0
   26.2785  -19.9161   -8.6850 C   0  0  0  0  0  0  0  0  0  0  0  0
   26.1938  -20.4010  -10.1288 C   0  0  1  0  0  0  0  0  0  0  0  0
   26.8143  -21.7729  -10.1681 C   0  0  0  0  0  0  0  0  0  0  0  0
   24.7481  -20.3974  -10.5157 C   0  0  0  0  0  0  0  0  0  0  0  0
   24.5585  -20.7496  -11.9680 C   0  0  2  0  0  0  0  0  0  0  0  0
   25.6479  -20.2887  -12.7896 N   0  0  0  0  0  0  0  0  0  0  0  0
   23.2960  -20.2619  -12.5259 C   0  0  0  0  0  0  0  0  0  0  0  0
   23.3105  -19.1992  -13.1961 O   0  0  0  0  0  0  0  0  0  0  0  0
   22.3066  -20.1563  -15.1774 C   0  0  0  0  0  0  0  0  0  0  0  0
   21.0970  -20.8135  -14.5923 C   0  0  1  0  0  0  0  0  0  0  0  0
   21.0895  -22.2686  -14.9359 C   0  0  0  0  0  0  0  0  0  0  0  0
   20.9353  -20.5407  -13.1194 C   0  0  2  0  0  0  0  0  0  0  0  0
   22.0454  -20.9569  -12.3324 N   0  0  0  0  0  0  0  0  0  0  0  0
   19.6997  -21.1984  -12.6171 C   0  0  0  0  0  0  0  0  0  0  0  0
   19.7901  -22.2475  -11.7228 O   0  0  0  0  0  0  0  0  0  0  0  0
   18.6010  -20.7728  -13.0280 O   0  0  0  0  0  0  0  0  0  0  0  0
  2  1  1  6
  2  3  1  0
  4  6  1  0
  4  2  1  0
  4  5  1  1
  6  7  2  0
  9  8  1  1
  9 10  1  0
 11  9  1  0
 12 11  1  1
 13 12  1  0
 13  6  1  0
 14 20  1  0
 14 12  1  0
 15 14  2  0
 17 16  1  1
 18 17  1  0
 19 17  1  0
 19 20  1  1
 21 19  1  0
 21 22  1  0
 23 21  2  0
M  END
$$$$
