EFT.pdb
     RDKit          3D

 28 28  0  0  1  0  0  0  0  0999 V2000
   27.6943  -21.8707  -17.6627 N   0  0  0  0  0  0  0  0  0  0  0  0
   26.6297  -20.9709  -17.3666 C   0  0  1  0  0  0  0  0  0  0  0  0
   25.6769  -20.8947  -18.5292 C   0  0  0  0  0  0  0  0  0  0  0  0
   25.9785  -19.5625  -19.2334 C   0  0  0  0  0  0  0  0  0  0  0  0
   25.6188  -18.4207  -18.3967 C   0  0  0  0  0  0  0  0  0  0  0  0
   26.5596  -17.6501  -18.0113 O   0  0  0  0  0  0  0  0  0  0  0  0
   25.9488  -21.4377  -16.1219 C   0  0  0  0  0  0  0  0  0  0  0  0
   25.5718  -22.6401  -16.0168 O   0  0  0  0  0  0  0  0  0  0  0  0
   24.2897  -18.2105  -18.0493 O   0  0  0  0  0  0  0  0  0  0  0  0
   25.6902  -20.6004  -15.0214 N   0  0  0  0  0  0  0  0  0  0  0  0
   25.0441  -21.0764  -13.7714 C   0  0  1  0  0  0  0  0  0  0  0  0
   25.6850  -20.3309  -12.6611 C   0  0  0  0  0  0  0  0  0  0  0  0
   25.2112  -20.5297  -11.3093 C   0  0  0  0  0  0  0  0  0  0  0  0
   26.0922  -21.1409  -10.4036 C   0  0  0  0  0  0  0  0  0  0  0  0
   25.7892  -21.3628   -9.0962 C   0  0  0  0  0  0  0  0  0  0  0  0
   24.5636  -20.9770   -8.6146 C   0  0  0  0  0  0  0  0  0  0  0  0
   23.6786  -20.3792   -9.4642 C   0  0  0  0  0  0  0  0  0  0  0  0
   24.0043  -20.1603  -10.7954 C   0  0  0  0  0  0  0  0  0  0  0  0
   23.6132  -20.7611  -13.9166 C   0  0  0  0  0  0  0  0  0  0  0  0
   23.2859  -19.5669  -14.2554 O   0  0  0  0  0  0  0  0  0  0  0  0
   21.1730  -21.1991  -16.2841 C   0  0  0  0  0  0  0  0  0  0  0  0
   20.4681  -21.6572  -15.0380 C   0  0  1  0  0  0  0  0  0  0  0  0
   20.5053  -23.0522  -14.9996 O   0  0  0  0  0  0  0  0  0  0  0  0
   21.1823  -21.1697  -13.7779 C   0  0  2  0  0  0  0  0  0  0  0  0
   22.5303  -21.6596  -13.7248 N   0  0  0  0  0  0  0  0  0  0  0  0
   20.4101  -21.4576  -12.5770 C   0  0  0  0  0  0  0  0  0  0  0  0
   19.2485  -20.9529  -12.4056 O   0  0  0  0  0  0  0  0  0  0  0  0
   20.9120  -22.2826  -11.5916 O   0  0  0  0  0  0  0  0  0  0  0  0
  2  1  1  6
  2  3  1  0
  2  7  1  0
  4  5  1  0
  4  3  1  0
  5  6  2  0
  7  8  2  0
  9  5  1  0
 10  7  1  0
 10 11  1  0
 11 12  1  1
 12 13  1  0
 13 14  2  0
 14 15  1  0
 16 15  2  0
 17 16  1  0
 18 13  1  0
 18 17  2  0
 19 11  1  0
 19 20  2  0
 22 21  1  6
 22 24  1  0
 23 22  1  0
 24 25  1  1
 24 26  1  0
 25 19  1  0
 26 28  1  0
 27 26  2  0
M  END
$$$$
