EFT.pdb
     RDKit          3D

 28 28  0  0  1  0  0  0  0  0999 V2000
   27.7439  -21.8725  -13.9971 N   0  0  0  0  0  0  0  0  0  0  0  0
   27.5256  -20.6905  -13.2315 C   0  0  1  0  0  0  0  0  0  0  0  0
   26.4619  -19.8439  -13.8772 C   0  0  0  0  0  0  0  0  0  0  0  0
   27.0196  -19.4441  -15.2522 C   0  0  0  0  0  0  0  0  0  0  0  0
   27.5722  -18.0923  -15.2338 C   0  0  0  0  0  0  0  0  0  0  0  0
   26.7894  -17.1375  -14.9125 O   0  0  0  0  0  0  0  0  0  0  0  0
   27.1487  -21.0900  -11.8427 C   0  0  0  0  0  0  0  0  0  0  0  0
   26.4574  -22.1304  -11.6464 O   0  0  0  0  0  0  0  0  0  0  0  0
   28.9071  -17.8872  -15.5617 O   0  0  0  0  0  0  0  0  0  0  0  0
   27.5243  -20.3611  -10.6995 N   0  0  0  0  0  0  0  0  0  0  0  0
   27.0858  -20.7192   -9.3262 C   0  0  1  0  0  0  0  0  0  0  0  0
   27.9578  -19.9585   -8.3987 C   0  0  0  0  0  0  0  0  0  0  0  0
   27.6901  -20.0046   -6.9782 C   0  0  0  0  0  0  0  0  0  0  0  0
   28.4580  -19.1683   -6.1529 C   0  0  0  0  0  0  0  0  0  0  0  0
   28.2932  -19.0885   -4.8050 C   0  0  0  0  0  0  0  0  0  0  0  0
   27.3318  -19.8566   -4.1979 C   0  0  0  0  0  0  0  0  0  0  0  0
   26.5644  -20.6830   -4.9663 C   0  0  0  0  0  0  0  0  0  0  0  0
   26.7457  -20.7519   -6.3405 C   0  0  0  0  0  0  0  0  0  0  0  0
   25.6730  -20.3135   -9.2398 C   0  0  0  0  0  0  0  0  0  0  0  0
   25.3497  -19.1453   -9.6629 O   0  0  0  0  0  0  0  0  0  0  0  0
   21.3365  -20.6117  -10.5510 C   0  0  0  0  0  0  0  0  0  0  0  0
   22.8034  -20.8894  -10.3757 C   0  0  1  0  0  0  0  0  0  0  0  0
   23.5192  -19.9808  -11.1575 O   0  0  0  0  0  0  0  0  0  0  0  0
   23.2485  -20.6635   -8.9313 C   0  0  2  0  0  0  0  0  0  0  0  0
   24.6023  -21.0970   -8.7333 N   0  0  0  0  0  0  0  0  0  0  0  0
   22.3070  -21.2413   -7.9822 C   0  0  0  0  0  0  0  0  0  0  0  0
   22.7007  -22.0527   -7.0767 O   0  0  0  0  0  0  0  0  0  0  0  0
   20.9641  -20.9287   -8.0352 O   0  0  0  0  0  0  0  0  0  0  0  0
  2  1  1  6
  2  3  1  0
  2  7  1  0
  4  5  1  0
  4  3  1  0
  5  6  2  0
  7  8  2  0
  9  5  1  0
 10  7  1  0
 10 11  1  0
 11 12  1  1
 12 13  1  0
 13 14  2  0
 14 15  1  0
 16 15  2  0
 17 16  1  0
 18 13  1  0
 18 17  2  0
 19 11  1  0
 19 20  2  0
 22 21  1  1
 22 24  1  0
 23 22  1  0
 24 25  1  6
 24 26  1  0
 25 19  1  0
 26 28  1  0
 27 26  2  0
M  END
$$$$
