EFT.pdb
     RDKit          3D

 28 28  0  0  1  0  0  0  0  0999 V2000
   27.4864  -23.4288  -16.9261 N   0  0  0  0  0  0  0  0  0  0  0  0
   27.5379  -22.1287  -16.3448 C   0  0  1  0  0  0  0  0  0  0  0  0
   26.9966  -21.1079  -17.3093 C   0  0  0  0  0  0  0  0  0  0  0  0
   27.2928  -21.6575  -18.7135 C   0  0  0  0  0  0  0  0  0  0  0  0
   26.0631  -21.9620  -19.4401 C   0  0  0  0  0  0  0  0  0  0  0  0
   25.0010  -21.3487  -19.0887 O   0  0  0  0  0  0  0  0  0  0  0  0
   26.7628  -22.1508  -15.0684 C   0  0  0  0  0  0  0  0  0  0  0  0
   25.8166  -22.9753  -14.9139 O   0  0  0  0  0  0  0  0  0  0  0  0
   26.0828  -22.8931  -20.4716 O   0  0  0  0  0  0  0  0  0  0  0  0
   27.0240  -21.2860  -13.9899 N   0  0  0  0  0  0  0  0  0  0  0  0
   26.2754  -21.3356  -12.7079 C   0  0  1  0  0  0  0  0  0  0  0  0
   27.1276  -20.6575  -11.7013 C   0  0  0  0  0  0  0  0  0  0  0  0
   26.6016  -20.4173  -10.3757 C   0  0  0  0  0  0  0  0  0  0  0  0
   26.9424  -21.3388   -9.3732 C   0  0  0  0  0  0  0  0  0  0  0  0
   26.5425  -21.2205   -8.0784 C   0  0  0  0  0  0  0  0  0  0  0  0
   25.7645  -20.1522   -7.7093 C   0  0  0  0  0  0  0  0  0  0  0  0
   25.4116  -19.2342   -8.6554 C   0  0  0  0  0  0  0  0  0  0  0  0
   25.8286  -19.3701   -9.9721 C   0  0  0  0  0  0  0  0  0  0  0  0
   25.0114  -20.6223  -12.9559 C   0  0  0  0  0  0  0  0  0  0  0  0
   25.0702  -19.4086  -13.3702 O   0  0  0  0  0  0  0  0  0  0  0  0
   22.8038  -20.1806  -15.4117 C   0  0  0  0  0  0  0  0  0  0  0  0
   21.8749  -20.4750  -14.2673 C   0  0  1  0  0  0  0  0  0  0  0  0
   21.5087  -21.8206  -14.3334 O   0  0  0  0  0  0  0  0  0  0  0  0
   22.5666  -20.2798  -12.9185 C   0  0  2  0  0  0  0  0  0  0  0  0
   23.7025  -21.1475  -12.7893 N   0  0  0  0  0  0  0  0  0  0  0  0
   21.6254  -20.3833  -11.8119 C   0  0  0  0  0  0  0  0  0  0  0  0
   21.7963  -21.2427  -10.8816 O   0  0  0  0  0  0  0  0  0  0  0  0
   20.5232  -19.5565  -11.7382 O   0  0  0  0  0  0  0  0  0  0  0  0
  2  1  1  6
  2  3  1  0
  2  7  1  0
  4  5  1  0
  4  3  1  0
  5  6  2  0
  7  8  2  0
  9  5  1  0
 10  7  1  0
 10 11  1  0
 11 12  1  1
 12 13  1  0
 13 14  2  0
 14 15  1  0
 16 15  2  0
 17 16  1  0
 18 13  1  0
 18 17  2  0
 19 11  1  0
 19 20  2  0
 22 21  1  6
 22 24  1  0
 23 22  1  0
 24 25  1  1
 24 26  1  0
 25 19  1  0
 26 28  1  0
 27 26  2  0
M  END
$$$$
