EFT.pdb
     RDKit          3D

 28 28  0  0  1  0  0  0  0  0999 V2000
   19.8212  -20.4475  -11.3947 N   0  0  0  0  0  0  0  0  0  0  0  0
   20.0209  -20.6309  -12.7937 C   0  0  1  0  0  0  0  0  0  0  0  0
   18.8634  -20.0528  -13.5627 C   0  0  0  0  0  0  0  0  0  0  0  0
   18.2907  -21.2110  -14.3945 C   0  0  0  0  0  0  0  0  0  0  0  0
   17.4619  -22.0965  -13.5808 C   0  0  0  0  0  0  0  0  0  0  0  0
   16.4303  -21.5942  -13.0231 O   0  0  0  0  0  0  0  0  0  0  0  0
   21.3148  -19.9893  -13.1745 C   0  0  0  0  0  0  0  0  0  0  0  0
   21.5223  -18.7708  -12.9081 O   0  0  0  0  0  0  0  0  0  0  0  0
   17.8132  -23.4335  -13.4381 O   0  0  0  0  0  0  0  0  0  0  0  0
   22.3533  -20.6736  -13.8321 N   0  0  0  0  0  0  0  0  0  0  0  0
   23.6530  -20.0424  -14.1765 C   0  0  1  0  0  0  0  0  0  0  0  0
   24.7061  -20.9306  -13.6276 C   0  0  0  0  0  0  0  0  0  0  0  0
   26.0780  -20.7428  -14.0448 C   0  0  0  0  0  0  0  0  0  0  0  0
   26.7503  -19.6140  -13.5509 C   0  0  0  0  0  0  0  0  0  0  0  0
   28.0494  -19.3297  -13.8372 C   0  0  0  0  0  0  0  0  0  0  0  0
   28.7603  -20.1769  -14.6495 C   0  0  0  0  0  0  0  0  0  0  0  0
   28.1418  -21.2856  -15.1501 C   0  0  0  0  0  0  0  0  0  0  0  0
   26.8156  -21.5606  -14.8474 C   0  0  0  0  0  0  0  0  0  0  0  0
   23.6827  -19.9663  -15.6466 C   0  0  0  0  0  0  0  0  0  0  0  0
   23.2847  -20.9873  -16.3156 O   0  0  0  0  0  0  0  0  0  0  0  0
   22.1117  -17.6978  -18.4367 C   0  0  0  0  0  0  0  0  0  0  0  0
   23.6106  -17.7393  -18.5406 C   0  0  1  0  0  0  0  0  0  0  0  0
   24.1288  -16.6321  -17.8664 O   0  0  0  0  0  0  0  0  0  0  0  0
   24.1870  -18.9755  -17.8511 C   0  0  2  0  0  0  0  0  0  0  0  0
   24.1074  -18.8557  -16.4231 N   0  0  0  0  0  0  0  0  0  0  0  0
   25.5245  -19.2868  -18.3360 C   0  0  0  0  0  0  0  0  0  0  0  0
   26.5567  -19.0342  -17.6259 O   0  0  0  0  0  0  0  0  0  0  0  0
   25.7137  -19.8624  -19.5757 O   0  0  0  0  0  0  0  0  0  0  0  0
  2  1  1  1
  2  3  1  0
  2  7  1  0
  4  5  1  0
  4  3  1  0
  5  6  2  0
  7  8  2  0
  9  5  1  0
 10  7  1  0
 10 11  1  0
 11 12  1  6
 12 13  1  0
 13 14  2  0
 14 15  1  0
 16 15  2  0
 17 16  1  0
 18 13  1  0
 18 17  2  0
 19 11  1  0
 19 20  2  0
 22 21  1  1
 22 24  1  0
 23 22  1  0
 24 25  1  1
 24 26  1  0
 25 19  1  0
 26 28  1  0
 27 26  2  0
M  END
$$$$
