EFT.pdb
     RDKit          3D

 28 28  0  0  1  0  0  0  0  0999 V2000
   28.5325  -21.5004  -13.8730 N   0  0  0  0  0  0  0  0  0  0  0  0
   27.8065  -20.4362  -13.2637 C   0  0  1  0  0  0  0  0  0  0  0  0
   26.6044  -20.0845  -14.0983 C   0  0  0  0  0  0  0  0  0  0  0  0
   26.8661  -18.6694  -14.6373 C   0  0  0  0  0  0  0  0  0  0  0  0
   27.7386  -18.6949  -15.8083 C   0  0  0  0  0  0  0  0  0  0  0  0
   28.7590  -17.9292  -15.8026 O   0  0  0  0  0  0  0  0  0  0  0  0
   27.4193  -20.8574  -11.8841 C   0  0  0  0  0  0  0  0  0  0  0  0
   26.8783  -21.9841  -11.6922 O   0  0  0  0  0  0  0  0  0  0  0  0
   27.4386  -19.5337  -16.8750 O   0  0  0  0  0  0  0  0  0  0  0  0
   27.6234  -20.0571  -10.7453 N   0  0  0  0  0  0  0  0  0  0  0  0
   27.3126  -20.5114   -9.3657 C   0  0  1  0  0  0  0  0  0  0  0  0
   28.2056  -19.7446   -8.4634 C   0  0  0  0  0  0  0  0  0  0  0  0
   28.0027  -19.8227   -7.0336 C   0  0  0  0  0  0  0  0  0  0  0  0
   28.5278  -20.9432   -6.3710 C   0  0  0  0  0  0  0  0  0  0  0  0
   28.4363  -21.1308   -5.0269 C   0  0  0  0  0  0  0  0  0  0  0  0
   27.8018  -20.1882   -4.2576 C   0  0  0  0  0  0  0  0  0  0  0  0
   27.2775  -19.0842   -4.8647 C   0  0  0  0  0  0  0  0  0  0  0  0
   27.3802  -18.9085   -6.2375 C   0  0  0  0  0  0  0  0  0  0  0  0
   25.8888  -20.2014   -9.1545 C   0  0  0  0  0  0  0  0  0  0  0  0
   25.4677  -19.0321   -9.4763 O   0  0  0  0  0  0  0  0  0  0  0  0
   23.4986  -19.9185  -10.9207 C   0  0  0  0  0  0  0  0  0  0  0  0
   22.8237  -20.7492   -9.8653 C   0  0  1  0  0  0  0  0  0  0  0  0
   22.8971  -22.0899  -10.2475 O   0  0  0  0  0  0  0  0  0  0  0  0
   23.5434  -20.6415   -8.5213 C   0  0  2  0  0  0  0  0  0  0  0  0
   24.9058  -21.0803   -8.6273 N   0  0  0  0  0  0  0  0  0  0  0  0
   22.7991  -21.3033   -7.4587 C   0  0  0  0  0  0  0  0  0  0  0  0
   23.3484  -22.1982   -6.7302 O   0  0  0  0  0  0  0  0  0  0  0  0
   21.4804  -20.9825   -7.2100 O   0  0  0  0  0  0  0  0  0  0  0  0
  2  1  1  6
  2  3  1  0
  2  7  1  0
  4  5  1  0
  4  3  1  0
  5  6  2  0
  7  8  2  0
  9  5  1  0
 10  7  1  0
 10 11  1  0
 11 12  1  1
 12 13  1  0
 13 14  2  0
 14 15  1  0
 16 15  2  0
 17 16  1  0
 18 13  1  0
 18 17  2  0
 19 11  1  0
 19 20  2  0
 22 21  1  6
 22 24  1  0
 23 22  1  0
 24 25  1  6
 24 26  1  0
 25 19  1  0
 26 28  1  0
 27 26  2  0
M  END
$$$$
