EFT.pdb
     RDKit          3D

 28 28  0  0  1  0  0  0  0  0999 V2000
   28.3113  -21.8535  -15.3044 N   0  0  0  0  0  0  0  0  0  0  0  0
   27.6163  -20.7326  -14.7646 C   0  0  1  0  0  0  0  0  0  0  0  0
   26.8799  -20.0044  -15.8567 C   0  0  0  0  0  0  0  0  0  0  0  0
   27.6463  -20.3060  -17.1541 C   0  0  0  0  0  0  0  0  0  0  0  0
   28.4054  -19.1447  -17.6104 C   0  0  0  0  0  0  0  0  0  0  0  0
   27.7480  -18.1439  -18.0507 O   0  0  0  0  0  0  0  0  0  0  0  0
   26.6887  -21.2197  -13.7002 C   0  0  0  0  0  0  0  0  0  0  0  0
   26.1951  -22.3817  -13.7707 O   0  0  0  0  0  0  0  0  0  0  0  0
   29.7940  -19.1620  -17.5550 O   0  0  0  0  0  0  0  0  0  0  0  0
   26.3148  -20.4455  -12.5867 N   0  0  0  0  0  0  0  0  0  0  0  0
   25.3545  -20.9149  -11.5552 C   0  0  1  0  0  0  0  0  0  0  0  0
   25.6576  -20.1468  -10.3234 C   0  0  0  0  0  0  0  0  0  0  0  0
   26.8236  -20.4946   -9.5417 C   0  0  0  0  0  0  0  0  0  0  0  0
   26.8562  -20.0579   -8.2082 C   0  0  0  0  0  0  0  0  0  0  0  0
   27.8756  -20.3376   -7.3521 C   0  0  0  0  0  0  0  0  0  0  0  0
   28.9388  -21.0846   -7.7929 C   0  0  0  0  0  0  0  0  0  0  0  0
   28.9444  -21.5280   -9.0835 C   0  0  0  0  0  0  0  0  0  0  0  0
   27.8958  -21.2336   -9.9436 C   0  0  0  0  0  0  0  0  0  0  0  0
   24.0157  -20.6216  -12.0932 C   0  0  0  0  0  0  0  0  0  0  0  0
   23.6663  -19.3923  -12.2152 O   0  0  0  0  0  0  0  0  0  0  0  0
   22.6569  -21.7210  -15.4026 C   0  0  0  0  0  0  0  0  0  0  0  0
   21.5424  -21.8901  -14.4084 C   0  0  1  0  0  0  0  0  0  0  0  0
   21.4609  -23.2408  -14.0649 O   0  0  0  0  0  0  0  0  0  0  0  0
   21.8255  -21.1297  -13.1133 C   0  0  2  0  0  0  0  0  0  0  0  0
   23.0487  -21.5750  -12.5087 N   0  0  0  0  0  0  0  0  0  0  0  0
   20.6834  -21.1627  -12.2100 C   0  0  0  0  0  0  0  0  0  0  0  0
   20.8001  -21.6103  -11.0187 O   0  0  0  0  0  0  0  0  0  0  0  0
   19.4442  -20.7121  -12.6164 O   0  0  0  0  0  0  0  0  0  0  0  0
  2  1  1  6
  2  3  1  0
  2  7  1  0
  4  5  1  0
  4  3  1  0
  5  6  2  0
  7  8  2  0
  9  5  1  0
 10  7  1  0
 10 11  1  0
 11 12  1  1
 12 13  1  0
 13 14  2  0
 14 15  1  0
 16 15  2  0
 17 16  1  0
 18 13  1  0
 18 17  2  0
 19 11  1  0
 19 20  2  0
 22 21  1  6
 22 24  1  0
 23 22  1  0
 24 25  1  1
 24 26  1  0
 25 19  1  0
 26 28  1  0
 27 26  2  0
M  END
$$$$
