EFT.pdb
     RDKit          3D

 28 28  0  0  1  0  0  0  0  0999 V2000
   28.2507  -22.7314  -17.2734 N   0  0  0  0  0  0  0  0  0  0  0  0
   27.7527  -21.5027  -16.7510 C   0  0  1  0  0  0  0  0  0  0  0  0
   26.8363  -20.8485  -17.7496 C   0  0  0  0  0  0  0  0  0  0  0  0
   27.7157  -20.4959  -18.9595 C   0  0  0  0  0  0  0  0  0  0  0  0
   28.4798  -19.2729  -18.7284 C   0  0  0  0  0  0  0  0  0  0  0  0
   27.8713  -18.2874  -18.1934 O   0  0  0  0  0  0  0  0  0  0  0  0
   27.0551  -21.7858  -15.4611 C   0  0  0  0  0  0  0  0  0  0  0  0
   26.3179  -22.8069  -15.3483 O   0  0  0  0  0  0  0  0  0  0  0  0
   29.8201  -19.2167  -19.0914 O   0  0  0  0  0  0  0  0  0  0  0  0
   27.1674  -20.9642  -14.3246 N   0  0  0  0  0  0  0  0  0  0  0  0
   26.4859  -21.2581  -13.0380 C   0  0  1  0  0  0  0  0  0  0  0  0
   27.2545  -20.5475  -11.9875 C   0  0  0  0  0  0  0  0  0  0  0  0
   26.7650  -20.5537  -10.6266 C   0  0  0  0  0  0  0  0  0  0  0  0
   25.9171  -19.5024  -10.2446 C   0  0  0  0  0  0  0  0  0  0  0  0
   25.3616  -19.3987   -9.0073 C   0  0  0  0  0  0  0  0  0  0  0  0
   25.6298  -20.3608   -8.0664 C   0  0  0  0  0  0  0  0  0  0  0  0
   26.4502  -21.3993   -8.3992 C   0  0  0  0  0  0  0  0  0  0  0  0
   27.0084  -21.4898   -9.6666 C   0  0  0  0  0  0  0  0  0  0  0  0
   25.1145  -20.7430  -13.1858 C   0  0  0  0  0  0  0  0  0  0  0  0
   24.9540  -19.5906  -13.7285 O   0  0  0  0  0  0  0  0  0  0  0  0
   21.7090  -22.8185  -14.1209 C   0  0  0  0  0  0  0  0  0  0  0  0
   21.9705  -21.3451  -14.2627 C   0  0  1  0  0  0  0  0  0  0  0  0
   20.7431  -20.6900  -14.3784 O   0  0  0  0  0  0  0  0  0  0  0  0
   22.6514  -20.7738  -13.0195 C   0  0  2  0  0  0  0  0  0  0  0  0
   23.9209  -21.4027  -12.7898 N   0  0  0  0  0  0  0  0  0  0  0  0
   21.7684  -20.8035  -11.8616 C   0  0  0  0  0  0  0  0  0  0  0  0
   22.1319  -21.3635  -10.7718 O   0  0  0  0  0  0  0  0  0  0  0  0
   20.5151  -20.2284  -11.9101 O   0  0  0  0  0  0  0  0  0  0  0  0
  2  1  1  6
  2  3  1  0
  2  7  1  0
  4  5  1  0
  4  3  1  0
  5  6  2  0
  7  8  2  0
  9  5  1  0
 10  7  1  0
 10 11  1  0
 11 12  1  1
 12 13  1  0
 13 14  2  0
 14 15  1  0
 16 15  2  0
 17 16  1  0
 18 13  1  0
 18 17  2  0
 19 11  1  0
 19 20  2  0
 22 21  1  1
 22 24  1  0
 23 22  1  0
 24 25  1  1
 24 26  1  0
 25 19  1  0
 26 28  1  0
 27 26  2  0
M  END
$$$$
