EFT.pdb
     RDKit          3D

 28 28  0  0  1  0  0  0  0  0999 V2000
   22.8578  -12.5729  -18.5798 N   0  0  0  0  0  0  0  0  0  0  0  0
   22.8884  -11.1622  -18.7792 C   0  0  1  0  0  0  0  0  0  0  0  0
   21.5695  -10.6874  -19.3271 C   0  0  0  0  0  0  0  0  0  0  0  0
   21.5398  -11.1335  -20.7973 C   0  0  0  0  0  0  0  0  0  0  0  0
   22.4500  -10.3380  -21.6171 C   0  0  0  0  0  0  0  0  0  0  0  0
   22.3208   -9.0692  -21.5834 O   0  0  0  0  0  0  0  0  0  0  0  0
   23.2153  -10.5079  -17.4770 C   0  0  0  0  0  0  0  0  0  0  0  0
   22.7133  -10.9459  -16.4022 O   0  0  0  0  0  0  0  0  0  0  0  0
   23.4106  -10.9718  -22.3962 O   0  0  0  0  0  0  0  0  0  0  0  0
   24.0737   -9.3992  -17.3625 N   0  0  0  0  0  0  0  0  0  0  0  0
   24.4106   -8.7621  -16.0637 C   0  0  1  0  0  0  0  0  0  0  0  0
   25.8877   -8.6328  -16.0337 C   0  0  0  0  0  0  0  0  0  0  0  0
   26.7037   -9.8242  -16.1122 C   0  0  0  0  0  0  0  0  0  0  0  0
   26.6189  -10.7319  -15.0449 C   0  0  0  0  0  0  0  0  0  0  0  0
   27.3070  -11.9044  -15.0010 C   0  0  0  0  0  0  0  0  0  0  0  0
   28.1337  -12.2390  -16.0438 C   0  0  0  0  0  0  0  0  0  0  0  0
   28.2435  -11.3824  -17.1005 C   0  0  0  0  0  0  0  0  0  0  0  0
   27.5339  -10.1900  -17.1291 C   0  0  0  0  0  0  0  0  0  0  0  0
   23.7258   -7.4587  -16.0689 C   0  0  0  0  0  0  0  0  0  0  0  0
   24.1093   -6.5747  -16.9173 O   0  0  0  0  0  0  0  0  0  0  0  0
   20.4611   -6.7147  -17.1856 C   0  0  0  0  0  0  0  0  0  0  0  0
   20.5529   -6.0005  -15.8662 C   0  0  1  0  0  0  0  0  0  0  0  0
   19.9532   -6.7997  -14.8912 O   0  0  0  0  0  0  0  0  0  0  0  0
   22.0056   -5.8055  -15.4335 C   0  0  2  0  0  0  0  0  0  0  0  0
   22.6560   -7.0672  -15.2210 N   0  0  0  0  0  0  0  0  0  0  0  0
   22.1114   -4.8972  -14.3000 C   0  0  0  0  0  0  0  0  0  0  0  0
   22.6021   -5.2892  -13.1869 O   0  0  0  0  0  0  0  0  0  0  0  0
   21.6842   -3.5888  -14.3970 O   0  0  0  0  0  0  0  0  0  0  0  0
  2  1  1  1
  2  3  1  0
  2  7  1  0
  4  5  1  0
  4  3  1  0
  5  6  2  0
  7  8  2  0
  9  5  1  0
 10  7  1  0
 10 11  1  0
 11 12  1  6
 12 13  1  0
 13 14  2  0
 14 15  1  0
 16 15  2  0
 17 16  1  0
 18 13  1  0
 18 17  2  0
 19 11  1  0
 19 20  2  0
 22 21  1  6
 22 24  1  0
 23 22  1  0
 24 25  1  1
 24 26  1  0
 25 19  1  0
 26 28  1  0
 27 26  2  0
M  END
$$$$
