EFT.pdb
     RDKit          3D

 28 28  0  0  1  0  0  0  0  0999 V2000
   27.1632  -21.7291  -17.7596 N   0  0  0  0  0  0  0  0  0  0  0  0
   27.3009  -20.7293  -16.7534 C   0  0  1  0  0  0  0  0  0  0  0  0
   26.7984  -19.4062  -17.2653 C   0  0  0  0  0  0  0  0  0  0  0  0
   26.6143  -19.5840  -18.7806 C   0  0  0  0  0  0  0  0  0  0  0  0
   25.2814  -19.1697  -19.2106 C   0  0  0  0  0  0  0  0  0  0  0  0
   24.5959  -18.4548  -18.4065 O   0  0  0  0  0  0  0  0  0  0  0  0
   26.5527  -21.1742  -15.5398 C   0  0  0  0  0  0  0  0  0  0  0  0
   25.7290  -22.1306  -15.6163 O   0  0  0  0  0  0  0  0  0  0  0  0
   24.8058  -19.5588  -20.4571 O   0  0  0  0  0  0  0  0  0  0  0  0
   26.7085  -20.5800  -14.2742 N   0  0  0  0  0  0  0  0  0  0  0  0
   25.9241  -20.9896  -13.0812 C   0  0  1  0  0  0  0  0  0  0  0  0
   26.6609  -20.4754  -11.9013 C   0  0  0  0  0  0  0  0  0  0  0  0
   26.0404  -20.5399  -10.5966 C   0  0  0  0  0  0  0  0  0  0  0  0
   24.7017  -20.1288  -10.5013 C   0  0  0  0  0  0  0  0  0  0  0  0
   23.9868  -20.1641   -9.3447 C   0  0  0  0  0  0  0  0  0  0  0  0
   24.5847  -20.6222   -8.1977 C   0  0  0  0  0  0  0  0  0  0  0  0
   25.8856  -21.0311   -8.2492 C   0  0  0  0  0  0  0  0  0  0  0  0
   26.6004  -20.9885   -9.4381 C   0  0  0  0  0  0  0  0  0  0  0  0
   24.5999  -20.3659  -13.2407 C   0  0  0  0  0  0  0  0  0  0  0  0
   24.5339  -19.0846  -13.2880 O   0  0  0  0  0  0  0  0  0  0  0  0
   22.3376  -19.6126  -15.7263 C   0  0  0  0  0  0  0  0  0  0  0  0
   21.4643  -20.2758  -14.6983 C   0  0  1  0  0  0  0  0  0  0  0  0
   21.2802  -21.6084  -15.0717 O   0  0  0  0  0  0  0  0  0  0  0  0
   22.1333  -20.2990  -13.3244 C   0  0  2  0  0  0  0  0  0  0  0  0
   23.3586  -21.0456  -13.3581 N   0  0  0  0  0  0  0  0  0  0  0  0
   21.2119  -20.7379  -12.2854 C   0  0  0  0  0  0  0  0  0  0  0  0
   21.4114  -21.8269  -11.6469 O   0  0  0  0  0  0  0  0  0  0  0  0
   20.0982  -19.9900  -11.9625 O   0  0  0  0  0  0  0  0  0  0  0  0
  2  1  1  6
  2  3  1  0
  2  7  1  0
  4  5  1  0
  4  3  1  0
  5  6  2  0
  7  8  2  0
  9  5  1  0
 10  7  1  0
 10 11  1  0
 11 12  1  1
 12 13  1  0
 13 14  2  0
 14 15  1  0
 16 15  2  0
 17 16  1  0
 18 13  1  0
 18 17  2  0
 19 11  1  0
 19 20  2  0
 22 21  1  6
 22 24  1  0
 23 22  1  0
 24 25  1  6
 24 26  1  0
 25 19  1  0
 26 28  1  0
 27 26  2  0
M  END
$$$$
