EFT.pdb
     RDKit          3D

 28 28  0  0  1  0  0  0  0  0999 V2000
   28.0523  -21.2657  -16.1372 N   0  0  0  0  0  0  0  0  0  0  0  0
   27.7207  -20.2102  -15.2390 C   0  0  1  0  0  0  0  0  0  0  0  0
   26.9042  -19.1635  -15.9481 C   0  0  0  0  0  0  0  0  0  0  0  0
   27.8821  -18.4227  -16.8734 C   0  0  0  0  0  0  0  0  0  0  0  0
   27.9525  -19.0496  -18.1907 C   0  0  0  0  0  0  0  0  0  0  0  0
   26.9657  -18.8781  -18.9810 O   0  0  0  0  0  0  0  0  0  0  0  0
   26.9861  -20.7925  -14.0763 C   0  0  0  0  0  0  0  0  0  0  0  0
   26.0442  -21.6143  -14.2670 O   0  0  0  0  0  0  0  0  0  0  0  0
   29.0682  -19.8013  -18.5393 O   0  0  0  0  0  0  0  0  0  0  0  0
   27.2821  -20.4768  -12.7377 N   0  0  0  0  0  0  0  0  0  0  0  0
   26.5021  -21.0000  -11.5870 C   0  0  1  0  0  0  0  0  0  0  0  0
   27.2513  -20.6153  -10.3663 C   0  0  0  0  0  0  0  0  0  0  0  0
   26.5833  -20.6555   -9.0843 C   0  0  0  0  0  0  0  0  0  0  0  0
   27.1919  -19.9696   -8.0215 C   0  0  0  0  0  0  0  0  0  0  0  0
   26.6600  -19.8996   -6.7715 C   0  0  0  0  0  0  0  0  0  0  0  0
   25.4662  -20.5245   -6.5122 C   0  0  0  0  0  0  0  0  0  0  0  0
   24.8431  -21.2022   -7.5196 C   0  0  0  0  0  0  0  0  0  0  0  0
   25.3998  -21.2633   -8.7894 C   0  0  0  0  0  0  0  0  0  0  0  0
   25.1824  -20.3526  -11.6719 C   0  0  0  0  0  0  0  0  0  0  0  0
   25.1383  -19.0951  -11.9267 O   0  0  0  0  0  0  0  0  0  0  0  0
   22.5920  -21.3766  -14.1201 C   0  0  0  0  0  0  0  0  0  0  0  0
   22.6439  -20.0707  -13.3776 C   0  0  1  0  0  0  0  0  0  0  0  0
   21.4543  -19.3808  -13.6179 O   0  0  0  0  0  0  0  0  0  0  0  0
   22.7220  -20.2870  -11.8667 C   0  0  2  0  0  0  0  0  0  0  0  0
   23.9224  -20.9861  -11.5055 N   0  0  0  0  0  0  0  0  0  0  0  0
   21.5094  -20.9056  -11.3489 C   0  0  0  0  0  0  0  0  0  0  0  0
   20.3653  -20.3677  -11.5364 O   0  0  0  0  0  0  0  0  0  0  0  0
   21.5630  -22.0889  -10.6413 O   0  0  0  0  0  0  0  0  0  0  0  0
  2  1  1  6
  2  3  1  0
  2  7  1  0
  4  5  1  0
  4  3  1  0
  5  6  2  0
  7  8  2  0
  9  5  1  0
 10  7  1  0
 10 11  1  0
 11 12  1  1
 12 13  1  0
 13 14  2  0
 14 15  1  0
 16 15  2  0
 17 16  1  0
 18 13  1  0
 18 17  2  0
 19 11  1  0
 19 20  2  0
 22 21  1  6
 22 24  1  0
 23 22  1  0
 24 25  1  6
 24 26  1  0
 25 19  1  0
 26 28  1  0
 27 26  2  0
M  END
$$$$
