CYS.pdb
     RDKit          3D

 25 25  0  0  1  0  0  0  0  0999 V2000
   27.1945  -21.6395  -10.7838 N   0  0  0  0  0  0  0  0  0  0  0  0
   25.7972  -21.3360  -10.8065 C   0  0  1  0  0  0  0  0  0  0  0  0
   25.4356  -20.3486   -9.7063 C   0  0  0  0  0  0  0  0  0  0  0  0
   23.6403  -20.1937   -9.5724 S   0  0  0  0  0  0  0  0  0  0  0  0
   25.3997  -20.8166  -12.1326 C   0  0  0  0  0  0  0  0  0  0  0  0
   26.2190  -20.0665  -12.7345 O   0  0  0  0  0  0  0  0  0  0  0  0
   26.5297  -26.0288  -16.4168 O   0  0  0  0  0  0  0  0  0  0  0  0
   25.6878  -24.9896  -16.0127 C   0  0  0  0  0  0  0  0  0  0  0  0
   24.9578  -25.0720  -14.8425 C   0  0  0  0  0  0  0  0  0  0  0  0
   24.1266  -24.0472  -14.4423 C   0  0  0  0  0  0  0  0  0  0  0  0
   23.9876  -22.8876  -15.1985 C   0  0  0  0  0  0  0  0  0  0  0  0
   23.0885  -21.8001  -14.7707 C   0  0  0  0  0  0  0  0  0  0  0  0
   23.7577  -20.6922  -14.0156 C   0  0  2  0  0  0  0  0  0  0  0  0
   24.1460  -21.1614  -12.6824 N   0  0  0  0  0  0  0  0  0  0  0  0
   22.8339  -19.5625  -13.8380 C   0  0  0  0  0  0  0  0  0  0  0  0
   22.5425  -19.1012  -12.6869 O   0  0  0  0  0  0  0  0  0  0  0  0
   24.7226  -22.8208  -16.3638 C   0  0  0  0  0  0  0  0  0  0  0  0
   25.5587  -23.8458  -16.7710 C   0  0  0  0  0  0  0  0  0  0  0  0
   23.9389  -15.7571  -15.4496 O   0  0  0  0  0  0  0  0  0  0  0  0
   23.8682  -17.1544  -15.3445 C   0  0  0  0  0  0  0  0  0  0  0  0
   22.3935  -17.5084  -15.1571 C   0  0  2  0  0  0  0  0  0  0  0  0
   22.2048  -18.9111  -14.9449 N   0  0  0  0  0  0  0  0  0  0  0  0
   21.5882  -17.0180  -16.3071 C   0  0  0  0  0  0  0  0  0  0  0  0
   21.0152  -15.7669  -16.2913 O   0  0  0  0  0  0  0  0  0  0  0  0
   21.4276  -17.7509  -17.3044 O   0  0  0  0  0  0  0  0  0  0  0  0
  2  3  1  0
  2  1  1  6
  3  4  1  0
  5  2  1  0
  6  5  2  0
  7  8  1  0
  8  9  2  0
  8 18  1  0
  9 10  1  0
 10 11  2  0
 11 12  1  0
 13 12  1  1
 13 14  1  0
 14  5  1  0
 15 13  1  0
 15 22  1  0
 16 15  2  0
 17 11  1  0
 18 17  2  0
 19 20  1  0
 21 20  1  6
 21 22  1  0
 21 23  1  0
 23 24  1  0
 25 23  2  0
M  END
$$$$
