CYS.pdb
     RDKit          3D

 25 25  0  0  1  0  0  0  0  0999 V2000
   25.0100  -11.6502  -16.5956 N   0  0  0  0  0  0  0  0  0  0  0  0
   24.8104  -10.4275  -15.8813 C   0  0  1  0  0  0  0  0  0  0  0  0
   26.0288   -9.5229  -15.9976 C   0  0  0  0  0  0  0  0  0  0  0  0
   27.4339  -10.2539  -15.1280 S   0  0  0  0  0  0  0  0  0  0  0  0
   23.5939   -9.7377  -16.3614 C   0  0  0  0  0  0  0  0  0  0  0  0
   23.2053   -9.9910  -17.5366 O   0  0  0  0  0  0  0  0  0  0  0  0
   18.1838  -13.7583  -16.0533 O   0  0  0  0  0  0  0  0  0  0  0  0
   18.7678  -12.5178  -15.7847 C   0  0  0  0  0  0  0  0  0  0  0  0
   19.3165  -12.2362  -14.5484 C   0  0  0  0  0  0  0  0  0  0  0  0
   19.8934  -11.0125  -14.2819 C   0  0  0  0  0  0  0  0  0  0  0  0
   19.9477  -10.0101  -15.2453 C   0  0  0  0  0  0  0  0  0  0  0  0
   20.5559   -8.6997  -14.9504 C   0  0  0  0  0  0  0  0  0  0  0  0
   21.6187   -8.2691  -15.9151 C   0  0  2  0  0  0  0  0  0  0  0  0
   22.9112   -8.8348  -15.5178 N   0  0  0  0  0  0  0  0  0  0  0  0
   21.7532   -6.8051  -15.9090 C   0  0  0  0  0  0  0  0  0  0  0  0
   22.3598   -6.1853  -14.9760 O   0  0  0  0  0  0  0  0  0  0  0  0
   19.3955  -10.3066  -16.4740 C   0  0  0  0  0  0  0  0  0  0  0  0
   18.8151  -11.5328  -16.7479 C   0  0  0  0  0  0  0  0  0  0  0  0
   22.2013   -4.6200  -19.1366 O   0  0  0  0  0  0  0  0  0  0  0  0
   21.2822   -3.9505  -18.3147 C   0  0  0  0  0  0  0  0  0  0  0  0
   21.4047   -4.5678  -16.9222 C   0  0  2  0  0  0  0  0  0  0  0  0
   21.2123   -5.9857  -16.9489 N   0  0  0  0  0  0  0  0  0  0  0  0
   20.4679   -3.9084  -15.9741 C   0  0  0  0  0  0  0  0  0  0  0  0
   20.7028   -2.6327  -15.5146 O   0  0  0  0  0  0  0  0  0  0  0  0
   19.4509   -4.5196  -15.5870 O   0  0  0  0  0  0  0  0  0  0  0  0
  2  3  1  0
  2  1  1  6
  3  4  1  0
  5  2  1  0
  6  5  2  0
  7  8  1  0
  8  9  2  0
  8 18  1  0
  9 10  1  0
 10 11  2  0
 11 12  1  0
 13 12  1  1
 13 14  1  0
 14  5  1  0
 15 13  1  0
 15 22  1  0
 16 15  2  0
 17 11  1  0
 18 17  2  0
 19 20  1  0
 21 20  1  6
 21 22  1  0
 21 23  1  0
 23 24  1  0
 25 23  2  0
M  END
$$$$
