CYS.pdb
     RDKit          3D

 25 25  0  0  1  0  0  0  0  0999 V2000
   20.0219  -20.8576  -11.2622 N   0  0  0  0  0  0  0  0  0  0  0  0
   20.3947  -21.1941  -12.6012 C   0  0  1  0  0  0  0  0  0  0  0  0
   19.2798  -20.8538  -13.5796 C   0  0  0  0  0  0  0  0  0  0  0  0
   17.8698  -21.9552  -13.3263 S   0  0  0  0  0  0  0  0  0  0  0  0
   21.6522  -20.5133  -12.9773 C   0  0  0  0  0  0  0  0  0  0  0  0
   21.8350  -19.3426  -12.5387 O   0  0  0  0  0  0  0  0  0  0  0  0
   25.8468  -20.2634   -7.9586 O   0  0  0  0  0  0  0  0  0  0  0  0
   25.6391  -20.5271   -9.3148 C   0  0  0  0  0  0  0  0  0  0  0  0
   26.4446  -19.9644  -10.2862 C   0  0  0  0  0  0  0  0  0  0  0  0
   26.2410  -20.2239  -11.6251 C   0  0  0  0  0  0  0  0  0  0  0  0
   25.2171  -21.0623  -12.0548 C   0  0  0  0  0  0  0  0  0  0  0  0
   24.9977  -21.3268  -13.4886 C   0  0  0  0  0  0  0  0  0  0  0  0
   23.8829  -20.5408  -14.1089 C   0  0  2  0  0  0  0  0  0  0  0  0
   22.5961  -21.1693  -13.7967 N   0  0  0  0  0  0  0  0  0  0  0  0
   24.0238  -20.5191  -15.5722 C   0  0  0  0  0  0  0  0  0  0  0  0
   23.4659  -21.3876  -16.3186 O   0  0  0  0  0  0  0  0  0  0  0  0
   24.4219  -21.6158  -11.0731 C   0  0  0  0  0  0  0  0  0  0  0  0
   24.6210  -21.3596   -9.7276 C   0  0  0  0  0  0  0  0  0  0  0  0
   25.2947  -18.2332  -19.6109 O   0  0  0  0  0  0  0  0  0  0  0  0
   25.3234  -18.1500  -18.2107 C   0  0  0  0  0  0  0  0  0  0  0  0
   24.8485  -19.5017  -17.6789 C   0  0  2  0  0  0  0  0  0  0  0  0
   24.7953  -19.5230  -16.2489 N   0  0  0  0  0  0  0  0  0  0  0  0
   25.6994  -20.5999  -18.2091 C   0  0  0  0  0  0  0  0  0  0  0  0
   25.4081  -21.2090  -19.4082 O   0  0  0  0  0  0  0  0  0  0  0  0
   26.6949  -20.9777  -17.5580 O   0  0  0  0  0  0  0  0  0  0  0  0
  2  3  1  0
  2  1  1  1
  3  4  1  0
  5  2  1  0
  6  5  2  0
  7  8  1  0
  8  9  2  0
  8 18  1  0
  9 10  1  0
 10 11  2  0
 11 12  1  0
 13 12  1  1
 13 14  1  0
 14  5  1  0
 15 13  1  0
 15 22  1  0
 16 15  2  0
 17 11  1  0
 18 17  2  0
 19 20  1  0
 21 20  1  1
 21 22  1  0
 21 23  1  0
 23 24  1  0
 25 23  2  0
M  END
$$$$
