CYS.pdb
     RDKit          3D

 25 25  0  0  1  0  0  0  0  0999 V2000
   29.5021  -23.3689  -17.2113 N   0  0  0  0  0  0  0  0  0  0  0  0
   28.7126  -22.1786  -17.1404 C   0  0  1  0  0  0  0  0  0  0  0  0
   28.0803  -21.8625  -18.4881 C   0  0  0  0  0  0  0  0  0  0  0  0
   26.9479  -20.4629  -18.3330 S   0  0  0  0  0  0  0  0  0  0  0  0
   27.6798  -22.3017  -16.0894 C   0  0  0  0  0  0  0  0  0  0  0  0
   27.0513  -23.3952  -16.0149 O   0  0  0  0  0  0  0  0  0  0  0  0
   23.4863  -20.6301   -8.4225 O   0  0  0  0  0  0  0  0  0  0  0  0
   24.3229  -20.5797   -9.5404 C   0  0  0  0  0  0  0  0  0  0  0  0
   23.9291  -19.9448  -10.7026 C   0  0  0  0  0  0  0  0  0  0  0  0
   24.7536  -19.8942  -11.8067 C   0  0  0  0  0  0  0  0  0  0  0  0
   26.0159  -20.4793  -11.7977 C   0  0  0  0  0  0  0  0  0  0  0  0
   26.8883  -20.4313  -12.9854 C   0  0  0  0  0  0  0  0  0  0  0  0
   26.5055  -21.3751  -14.0846 C   0  0  2  0  0  0  0  0  0  0  0  0
   27.4257  -21.2228  -15.2152 N   0  0  0  0  0  0  0  0  0  0  0  0
   25.1509  -21.0735  -14.5699 C   0  0  0  0  0  0  0  0  0  0  0  0
   24.8969  -20.0384  -15.2676 O   0  0  0  0  0  0  0  0  0  0  0  0
   26.3941  -21.1093  -10.6304 C   0  0  0  0  0  0  0  0  0  0  0  0
   25.5713  -21.1637   -9.5188 C   0  0  0  0  0  0  0  0  0  0  0  0
   22.9934  -22.9581  -16.6500 O   0  0  0  0  0  0  0  0  0  0  0  0
   22.1079  -22.6981  -15.5933 C   0  0  0  0  0  0  0  0  0  0  0  0
   22.7292  -21.5752  -14.7636 C   0  0  2  0  0  0  0  0  0  0  0  0
   24.0343  -21.9221  -14.2896 N   0  0  0  0  0  0  0  0  0  0  0  0
   21.8274  -21.1915  -13.6451 C   0  0  0  0  0  0  0  0  0  0  0  0
   20.5841  -20.6537  -13.8873 O   0  0  0  0  0  0  0  0  0  0  0  0
   22.2016  -21.3590  -12.4663 O   0  0  0  0  0  0  0  0  0  0  0  0
  2  3  1  0
  2  1  1  6
  3  4  1  0
  5  2  1  0
  6  5  2  0
  7  8  1  0
  8  9  2  0
  8 18  1  0
  9 10  1  0
 10 11  2  0
 11 12  1  0
 13 12  1  1
 13 14  1  0
 14  5  1  0
 15 13  1  0
 15 22  1  0
 16 15  2  0
 17 11  1  0
 18 17  2  0
 19 20  1  0
 21 20  1  1
 21 22  1  0
 21 23  1  0
 23 24  1  0
 25 23  2  0
M  END
$$$$
