CYS.pdb
     RDKit          3D

 25 25  0  0  1  0  0  0  0  0999 V2000
   28.2031  -21.1112  -16.6831 N   0  0  0  0  0  0  0  0  0  0  0  0
   27.0347  -20.3367  -16.4002 C   0  0  1  0  0  0  0  0  0  0  0  0
   26.1122  -20.2795  -17.6092 C   0  0  0  0  0  0  0  0  0  0  0  0
   24.6763  -19.2431  -17.2500 S   0  0  0  0  0  0  0  0  0  0  0  0
   26.3255  -20.8777  -15.2210 C   0  0  0  0  0  0  0  0  0  0  0  0
   26.2668  -22.1342  -15.1017 O   0  0  0  0  0  0  0  0  0  0  0  0
   31.0635  -21.6092  -10.9250 O   0  0  0  0  0  0  0  0  0  0  0  0
   29.7477  -21.1979  -11.1517 C   0  0  0  0  0  0  0  0  0  0  0  0
   28.6868  -21.7968  -10.4999 C   0  0  0  0  0  0  0  0  0  0  0  0
   27.3877  -21.3918  -10.7225 C   0  0  0  0  0  0  0  0  0  0  0  0
   27.0897  -20.3641  -11.6118 C   0  0  0  0  0  0  0  0  0  0  0  0
   25.6975  -19.9434  -11.8538 C   0  0  0  0  0  0  0  0  0  0  0  0
   25.0714  -20.5224  -13.0860 C   0  0  2  0  0  0  0  0  0  0  0  0
   25.7447  -20.0012  -14.2791 N   0  0  0  0  0  0  0  0  0  0  0  0
   23.6552  -20.1369  -13.1704 C   0  0  0  0  0  0  0  0  0  0  0  0
   23.2924  -18.9618  -13.5023 O   0  0  0  0  0  0  0  0  0  0  0  0
   28.1595  -19.7767  -12.2546 C   0  0  0  0  0  0  0  0  0  0  0  0
   29.4657  -20.1784  -12.0355 C   0  0  0  0  0  0  0  0  0  0  0  0
   19.9419  -20.4051  -15.2821 O   0  0  0  0  0  0  0  0  0  0  0  0
   21.2691  -20.6661  -14.9097 C   0  0  0  0  0  0  0  0  0  0  0  0
   21.2791  -20.8150  -13.3888 C   0  0  2  0  0  0  0  0  0  0  0  0
   22.5969  -21.0558  -12.8855 N   0  0  0  0  0  0  0  0  0  0  0  0
   20.3300  -21.8771  -12.9616 C   0  0  0  0  0  0  0  0  0  0  0  0
   19.0661  -21.5636  -12.5164 O   0  0  0  0  0  0  0  0  0  0  0  0
   20.6826  -23.0735  -13.0064 O   0  0  0  0  0  0  0  0  0  0  0  0
  2  3  1  0
  2  1  1  6
  3  4  1  0
  5  2  1  0
  6  5  2  0
  7  8  1  0
  8  9  2  0
  8 18  1  0
  9 10  1  0
 10 11  2  0
 11 12  1  0
 13 12  1  1
 13 14  1  0
 14  5  1  0
 15 13  1  0
 15 22  1  0
 16 15  2  0
 17 11  1  0
 18 17  2  0
 19 20  1  0
 21 20  1  6
 21 22  1  0
 21 23  1  0
 23 24  1  0
 25 23  2  0
M  END
$$$$
