CYS.pdb
     RDKit          3D

 25 25  0  0  1  0  0  0  0  0999 V2000
   23.0082  -27.3384  -17.2408 N   0  0  0  0  0  0  0  0  0  0  0  0
   22.6144  -26.0266  -16.8295 C   0  0  1  0  0  0  0  0  0  0  0  0
   22.2224  -25.1740  -18.0276 C   0  0  0  0  0  0  0  0  0  0  0  0
   23.6823  -24.7789  -19.0164 S   0  0  0  0  0  0  0  0  0  0  0  0
   21.5093  -26.0990  -15.8497 C   0  0  0  0  0  0  0  0  0  0  0  0
   20.6913  -27.0552  -15.9631 O   0  0  0  0  0  0  0  0  0  0  0  0
   16.7748  -24.9294   -8.4494 O   0  0  0  0  0  0  0  0  0  0  0  0
   17.7542  -24.9162   -9.4457 C   0  0  0  0  0  0  0  0  0  0  0  0
   18.3043  -26.0891   -9.9261 C   0  0  0  0  0  0  0  0  0  0  0  0
   19.2708  -26.0776  -10.9094 C   0  0  0  0  0  0  0  0  0  0  0  0
   19.7330  -24.8861  -11.4595 C   0  0  0  0  0  0  0  0  0  0  0  0
   20.7748  -24.8801  -12.5028 C   0  0  0  0  0  0  0  0  0  0  0  0
   20.2767  -25.1528  -13.8895 C   0  0  2  0  0  0  0  0  0  0  0  0
   21.3956  -25.1234  -14.8358 N   0  0  0  0  0  0  0  0  0  0  0  0
   19.3179  -24.1174  -14.3021 C   0  0  0  0  0  0  0  0  0  0  0  0
   19.6769  -22.9180  -14.5371 O   0  0  0  0  0  0  0  0  0  0  0  0
   19.1743  -23.7242  -10.9692 C   0  0  0  0  0  0  0  0  0  0  0  0
   18.2038  -23.7288   -9.9825 C   0  0  0  0  0  0  0  0  0  0  0  0
   15.0485  -22.7801  -15.9775 O   0  0  0  0  0  0  0  0  0  0  0  0
   15.7315  -23.8805  -15.4378 C   0  0  0  0  0  0  0  0  0  0  0  0
   17.0199  -23.3395  -14.8192 C   0  0  2  0  0  0  0  0  0  0  0  0
   17.9238  -24.3912  -14.4654 N   0  0  0  0  0  0  0  0  0  0  0  0
   16.7142  -22.4684  -13.6535 C   0  0  0  0  0  0  0  0  0  0  0  0
   16.8967  -22.9156  -12.3649 O   0  0  0  0  0  0  0  0  0  0  0  0
   16.2848  -21.3121  -13.8438 O   0  0  0  0  0  0  0  0  0  0  0  0
  2  3  1  0
  2  1  1  6
  3  4  1  0
  5  2  1  0
  6  5  2  0
  7  8  1  0
  8  9  2  0
  8 18  1  0
  9 10  1  0
 10 11  2  0
 11 12  1  0
 13 12  1  1
 13 14  1  0
 14  5  1  0
 15 13  1  0
 15 22  1  0
 16 15  2  0
 17 11  1  0
 18 17  2  0
 19 20  1  0
 21 20  1  1
 21 22  1  0
 21 23  1  0
 23 24  1  0
 25 23  2  0
M  END
$$$$
