CYS.pdb
     RDKit          3D

 25 25  0  0  1  0  0  0  0  0999 V2000
   27.4635  -20.1375  -17.2979 N   0  0  0  0  0  0  0  0  0  0  0  0
   26.2567  -19.5303  -16.8289 C   0  0  1  0  0  0  0  0  0  0  0  0
   25.2853  -19.2906  -17.9755 C   0  0  0  0  0  0  0  0  0  0  0  0
   25.5753  -17.6650  -18.7094 S   0  0  0  0  0  0  0  0  0  0  0  0
   25.6337  -20.3588  -15.7745 C   0  0  0  0  0  0  0  0  0  0  0  0
   25.7619  -21.6124  -15.8662 O   0  0  0  0  0  0  0  0  0  0  0  0
   30.4259  -21.2618  -11.2258 O   0  0  0  0  0  0  0  0  0  0  0  0
   29.0917  -20.9408  -11.4880 C   0  0  0  0  0  0  0  0  0  0  0  0
   28.0569  -21.6845  -10.9540 C   0  0  0  0  0  0  0  0  0  0  0  0
   26.7396  -21.3688  -11.2117 C   0  0  0  0  0  0  0  0  0  0  0  0
   26.3964  -20.2892  -12.0195 C   0  0  0  0  0  0  0  0  0  0  0  0
   24.9860  -19.9637  -12.3003 C   0  0  0  0  0  0  0  0  0  0  0  0
   24.4513  -20.5368  -13.5774 C   0  0  2  0  0  0  0  0  0  0  0  0
   24.9278  -19.7467  -14.7163 N   0  0  0  0  0  0  0  0  0  0  0  0
   22.9819  -20.4872  -13.5854 C   0  0  0  0  0  0  0  0  0  0  0  0
   22.3389  -19.4311  -13.2794 O   0  0  0  0  0  0  0  0  0  0  0  0
   27.4405  -19.5571  -12.5451 C   0  0  0  0  0  0  0  0  0  0  0  0
   28.7647  -19.8686  -12.2902 C   0  0  0  0  0  0  0  0  0  0  0  0
   20.8165  -23.9741  -13.3242 O   0  0  0  0  0  0  0  0  0  0  0  0
   20.4281  -22.7877  -12.6839 C   0  0  0  0  0  0  0  0  0  0  0  0
   20.7859  -21.6400  -13.6275 C   0  0  2  0  0  0  0  0  0  0  0  0
   22.1830  -21.6202  -13.9369 N   0  0  0  0  0  0  0  0  0  0  0  0
   20.3339  -20.3402  -13.0640 C   0  0  0  0  0  0  0  0  0  0  0  0
   19.0455  -19.8943  -13.2504 O   0  0  0  0  0  0  0  0  0  0  0  0
   21.1342  -19.6398  -12.4107 O   0  0  0  0  0  0  0  0  0  0  0  0
  2  3  1  0
  2  1  1  6
  3  4  1  0
  5  2  1  0
  6  5  2  0
  7  8  1  0
  8  9  2  0
  8 18  1  0
  9 10  1  0
 10 11  2  0
 11 12  1  0
 13 12  1  1
 13 14  1  0
 14  5  1  0
 15 13  1  0
 15 22  1  0
 16 15  2  0
 17 11  1  0
 18 17  2  0
 19 20  1  0
 21 20  1  1
 21 22  1  0
 21 23  1  0
 23 24  1  0
 25 23  2  0
M  END
$$$$
