CYS.pdb
     RDKit          3D

 25 25  0  0  1  0  0  0  0  0999 V2000
   25.0571  -11.2357  -21.0213 N   0  0  0  0  0  0  0  0  0  0  0  0
   25.2030  -10.1178  -20.1415 C   0  0  1  0  0  0  0  0  0  0  0  0
   25.7345   -8.9024  -20.8874 C   0  0  0  0  0  0  0  0  0  0  0  0
   25.9130   -7.5049  -19.7558 S   0  0  0  0  0  0  0  0  0  0  0  0
   23.9190   -9.8085  -19.4768 C   0  0  0  0  0  0  0  0  0  0  0  0
   22.8786   -9.8000  -20.1936 O   0  0  0  0  0  0  0  0  0  0  0  0
   19.9725  -14.8830  -18.9185 O   0  0  0  0  0  0  0  0  0  0  0  0
   20.5285  -13.7522  -18.3151 C   0  0  0  0  0  0  0  0  0  0  0  0
   19.7494  -12.6607  -17.9824 C   0  0  0  0  0  0  0  0  0  0  0  0
   20.2967  -11.5441  -17.3867 C   0  0  0  0  0  0  0  0  0  0  0  0
   21.6551  -11.4686  -17.0955 C   0  0  0  0  0  0  0  0  0  0  0  0
   22.2361  -10.2671  -16.4686 C   0  0  0  0  0  0  0  0  0  0  0  0
   22.6264   -9.1843  -17.4281 C   0  0  2  0  0  0  0  0  0  0  0  0
   23.8848   -9.5366  -18.0920 N   0  0  0  0  0  0  0  0  0  0  0  0
   22.8405   -7.9182  -16.7122 C   0  0  0  0  0  0  0  0  0  0  0  0
   23.9333   -7.6567  -16.1120 O   0  0  0  0  0  0  0  0  0  0  0  0
   22.4192  -12.5659  -17.4339 C   0  0  0  0  0  0  0  0  0  0  0  0
   21.8761  -13.6897  -18.0318 C   0  0  0  0  0  0  0  0  0  0  0  0
   21.6269   -4.4829  -18.0192 O   0  0  0  0  0  0  0  0  0  0  0  0
   21.3140   -4.5061  -16.6518 C   0  0  0  0  0  0  0  0  0  0  0  0
   22.1282   -5.6414  -16.0324 C   0  0  2  0  0  0  0  0  0  0  0  0
   21.8367   -6.9018  -16.6445 N   0  0  0  0  0  0  0  0  0  0  0  0
   21.9220   -5.6896  -14.5605 C   0  0  0  0  0  0  0  0  0  0  0  0
   22.2973   -4.6385  -13.7555 O   0  0  0  0  0  0  0  0  0  0  0  0
   21.4002   -6.6988  -14.0439 O   0  0  0  0  0  0  0  0  0  0  0  0
  2  3  1  0
  2  1  1  6
  3  4  1  0
  5  2  1  0
  6  5  2  0
  7  8  1  0
  8  9  2  0
  8 18  1  0
  9 10  1  0
 10 11  2  0
 11 12  1  0
 13 12  1  1
 13 14  1  0
 14  5  1  0
 15 13  1  0
 15 22  1  0
 16 15  2  0
 17 11  1  0
 18 17  2  0
 19 20  1  0
 21 20  1  6
 21 22  1  0
 21 23  1  0
 23 24  1  0
 25 23  2  0
M  END
$$$$
