WDI.pdb
     RDKit          3D

 31 32  0  0  1  0  0  0  0  0999 V2000
    6.5368  -18.4824   24.1952 N   0  0  0  0  0  0  0  0  0  0  0  0
    7.2358  -17.2050   24.2213 C   0  0  1  0  0  0  0  0  0  0  0  0
    7.1860  -16.6518   25.6340 C   0  0  0  0  0  0  0  0  0  0  0  0
    6.4035  -15.4241   25.7358 C   0  0  0  0  0  0  0  0  0  0  0  0
    5.1179  -15.3341   26.2265 C   0  0  0  0  0  0  0  0  0  0  0  0
    4.7352  -14.0540   26.1617 N   0  0  0  0  0  0  0  0  0  0  0  0
    5.7214  -13.2713   25.6424 C   0  0  0  0  0  0  0  0  0  0  0  0
    5.8056  -11.9220   25.3812 C   0  0  0  0  0  0  0  0  0  0  0  0
    6.9722  -11.4145   24.8358 C   0  0  0  0  0  0  0  0  0  0  0  0
    8.0237  -12.2868   24.5698 C   0  0  0  0  0  0  0  0  0  0  0  0
    7.9304  -13.6299   24.8333 C   0  0  0  0  0  0  0  0  0  0  0  0
    6.7676  -14.1547   25.3790 C   0  0  0  0  0  0  0  0  0  0  0  0
    8.6876  -17.5317   23.9618 C   0  0  0  0  0  0  0  0  0  0  0  0
    9.1388  -18.6307   24.4142 O   0  0  0  0  0  0  0  0  0  0  0  0
    9.5327  -16.6458   23.2334 N   0  0  0  0  0  0  0  0  0  0  0  0
   10.9600  -16.8416   23.3042 C   0  0  1  0  0  0  0  0  0  0  0  0
   11.5852  -15.9727   22.1928 C   0  0  0  0  0  0  0  0  0  0  0  0
   12.9948  -16.4149   22.0595 C   0  0  0  0  0  0  0  0  0  0  0  0
   13.8912  -15.6242   21.6360 O   0  0  0  0  0  0  0  0  0  0  0  0
   11.5174  -16.4443   24.6155 C   0  0  0  0  0  0  0  0  0  0  0  0
   12.5542  -15.7388   24.6326 O   0  0  0  0  0  0  0  0  0  0  0  0
   13.3243  -17.7203   22.4053 O   0  0  0  0  0  0  0  0  0  0  0  0
    9.9209  -13.0621   27.8090 C   0  0  0  0  0  0  0  0  0  0  0  0
   10.7519  -14.1486   27.2126 C   0  0  0  0  0  0  0  0  0  0  0  0
   10.5687  -15.4951   27.8734 C   0  0  2  0  0  0  0  0  0  0  0  0
   11.0015  -15.3452   29.3128 C   0  0  0  0  0  0  0  0  0  0  0  0
   11.4842  -16.4900   27.1537 C   0  0  2  0  0  0  0  0  0  0  0  0
   10.9402  -16.8185   25.8489 N   0  0  0  0  0  0  0  0  0  0  0  0
   11.4857  -17.7441   27.9461 C   0  0  0  0  0  0  0  0  0  0  0  0
   12.2338  -17.8983   29.0986 O   0  0  0  0  0  0  0  0  0  0  0  0
   10.7814  -18.6994   27.5537 O   0  0  0  0  0  0  0  0  0  0  0  0
  2  1  1  1
  2  3  1  0
  2 13  1  0
  3  4  1  0
  4  5  2  0
  5  6  1  0
  7  6  1  0
  8  7  2  0
  9  8  1  0
 10 11  1  0
 10  9  2  0
 11 12  2  0
 12  4  1  0
 12  7  1  0
 13 15  1  0
 13 14  2  0
 15 16  1  0
 16 17  1  6
 17 18  1  0
 18 19  2  0
 18 22  1  0
 20 21  2  0
 20 16  1  0
 23 24  1  0
 24 25  1  0
 25 27  1  0
 25 26  1  1
 27 28  1  6
 28 20  1  0
 29 30  1  0
 29 27  1  0
 31 29  2  0
M  END
$$$$
