WDI.pdb
     RDKit          3D

 31 32  0  0  1  0  0  0  0  0999 V2000
    7.9123  -17.9525   21.6133 N   0  0  0  0  0  0  0  0  0  0  0  0
    8.8994  -16.9224   21.9063 C   0  0  1  0  0  0  0  0  0  0  0  0
    8.1772  -15.6848   22.4073 C   0  0  0  0  0  0  0  0  0  0  0  0
    7.4855  -14.9619   21.3447 C   0  0  0  0  0  0  0  0  0  0  0  0
    6.1611  -15.1261   20.9975 C   0  0  0  0  0  0  0  0  0  0  0  0
    5.8894  -14.2960   19.9843 N   0  0  0  0  0  0  0  0  0  0  0  0
    6.9884  -13.5727   19.6326 C   0  0  0  0  0  0  0  0  0  0  0  0
    7.2084  -12.6121   18.6710 C   0  0  0  0  0  0  0  0  0  0  0  0
    8.4684  -12.0505   18.5577 C   0  0  0  0  0  0  0  0  0  0  0  0
    9.4730  -12.4758   19.4221 C   0  0  0  0  0  0  0  0  0  0  0  0
    9.2444  -13.4338   20.3772 C   0  0  0  0  0  0  0  0  0  0  0  0
    7.9872  -14.0074   20.5031 C   0  0  0  0  0  0  0  0  0  0  0  0
    9.6881  -17.4404   23.0860 C   0  0  0  0  0  0  0  0  0  0  0  0
    9.0407  -17.9366   24.0611 O   0  0  0  0  0  0  0  0  0  0  0  0
   11.1112  -17.3819   23.1151 N   0  0  0  0  0  0  0  0  0  0  0  0
   11.7877  -17.6841   24.3527 C   0  0  1  0  0  0  0  0  0  0  0  0
   13.2659  -17.9511   23.9994 C   0  0  0  0  0  0  0  0  0  0  0  0
   13.2647  -19.0350   22.9868 C   0  0  0  0  0  0  0  0  0  0  0  0
   13.8628  -18.8946   21.8775 O   0  0  0  0  0  0  0  0  0  0  0  0
   11.7042  -16.5723   25.3247 C   0  0  0  0  0  0  0  0  0  0  0  0
   12.4333  -15.5678   25.1444 O   0  0  0  0  0  0  0  0  0  0  0  0
   12.5910  -20.2175   23.2702 O   0  0  0  0  0  0  0  0  0  0  0  0
    8.1602  -13.3605   26.0508 C   0  0  0  0  0  0  0  0  0  0  0  0
    9.4374  -14.1138   26.2179 C   0  0  0  0  0  0  0  0  0  0  0  0
    9.5681  -14.8136   27.5507 C   0  0  2  0  0  0  0  0  0  0  0  0
    9.6447  -13.7393   28.6098 C   0  0  0  0  0  0  0  0  0  0  0  0
   10.8732  -15.6149   27.5244 C   0  0  2  0  0  0  0  0  0  0  0  0
   10.8443  -16.5846   26.4449 N   0  0  0  0  0  0  0  0  0  0  0  0
   10.9462  -16.3844   28.7906 C   0  0  0  0  0  0  0  0  0  0  0  0
   11.6065  -15.9166   29.9117 O   0  0  0  0  0  0  0  0  0  0  0  0
   10.3878  -17.5015   28.8437 O   0  0  0  0  0  0  0  0  0  0  0  0
  2  1  1  1
  2  3  1  0
  2 13  1  0
  3  4  1  0
  4  5  2  0
  5  6  1  0
  7  6  1  0
  8  7  2  0
  9  8  1  0
 10 11  1  0
 10  9  2  0
 11 12  2  0
 12  4  1  0
 12  7  1  0
 13 15  1  0
 13 14  2  0
 15 16  1  0
 16 17  1  6
 17 18  1  0
 18 19  2  0
 18 22  1  0
 20 21  2  0
 20 16  1  0
 23 24  1  0
 24 25  1  0
 25 27  1  0
 25 26  1  1
 27 28  1  6
 28 20  1  0
 29 30  1  0
 29 27  1  0
 31 29  2  0
M  END
$$$$
