WDI.pdb
     RDKit          3D

 31 32  0  0  1  0  0  0  0  0999 V2000
    6.4101  -18.7435   24.1412 N   0  0  0  0  0  0  0  0  0  0  0  0
    7.0791  -17.4643   23.9479 C   0  0  1  0  0  0  0  0  0  0  0  0
    6.6587  -16.5222   25.0614 C   0  0  0  0  0  0  0  0  0  0  0  0
    7.0876  -15.1460   24.8330 C   0  0  0  0  0  0  0  0  0  0  0  0
    7.8922  -14.7212   23.7968 C   0  0  0  0  0  0  0  0  0  0  0  0
    8.0669  -13.4006   23.9186 N   0  0  0  0  0  0  0  0  0  0  0  0
    7.4055  -12.9149   25.0056 C   0  0  0  0  0  0  0  0  0  0  0  0
    7.2831  -11.6517   25.5396 C   0  0  0  0  0  0  0  0  0  0  0  0
    6.5231  -11.4760   26.6829 C   0  0  0  0  0  0  0  0  0  0  0  0
    5.9057  -12.5843   27.2554 C   0  0  0  0  0  0  0  0  0  0  0  0
    6.0334  -13.8393   26.7162 C   0  0  0  0  0  0  0  0  0  0  0  0
    6.7926  -14.0326   25.5709 C   0  0  0  0  0  0  0  0  0  0  0  0
    8.5475  -17.7360   24.1757 C   0  0  0  0  0  0  0  0  0  0  0  0
    8.8608  -18.6576   24.9934 O   0  0  0  0  0  0  0  0  0  0  0  0
    9.5571  -16.9916   23.5004 N   0  0  0  0  0  0  0  0  0  0  0  0
   10.9302  -17.4115   23.6376 C   0  0  1  0  0  0  0  0  0  0  0  0
   11.7302  -16.6891   22.5333 C   0  0  0  0  0  0  0  0  0  0  0  0
   13.1244  -17.1852   22.6344 C   0  0  0  0  0  0  0  0  0  0  0  0
   13.3729  -18.4259   22.7173 O   0  0  0  0  0  0  0  0  0  0  0  0
   11.4933  -17.0682   24.9616 C   0  0  0  0  0  0  0  0  0  0  0  0
   12.6777  -17.3983   25.2087 O   0  0  0  0  0  0  0  0  0  0  0  0
   14.1658  -16.2643   22.6399 O   0  0  0  0  0  0  0  0  0  0  0  0
    8.8330  -13.2611   28.2477 C   0  0  0  0  0  0  0  0  0  0  0  0
    9.3793  -14.5843   27.8270 C   0  0  0  0  0  0  0  0  0  0  0  0
   10.8765  -14.5942   27.6232 C   0  0  2  0  0  0  0  0  0  0  0  0
   11.1721  -13.6723   26.4637 C   0  0  0  0  0  0  0  0  0  0  0  0
   11.2838  -16.0273   27.2678 C   0  0  2  0  0  0  0  0  0  0  0  0
   10.7645  -16.3866   25.9610 N   0  0  0  0  0  0  0  0  0  0  0  0
   10.6344  -16.9291   28.2504 C   0  0  0  0  0  0  0  0  0  0  0  0
   11.0472  -17.0205   29.5668 O   0  0  0  0  0  0  0  0  0  0  0  0
    9.6751  -17.6348   27.8705 O   0  0  0  0  0  0  0  0  0  0  0  0
  2  1  1  1
  2  3  1  0
  2 13  1  0
  3  4  1  0
  4  5  2  0
  5  6  1  0
  7  6  1  0
  8  7  2  0
  9  8  1  0
 10 11  1  0
 10  9  2  0
 11 12  2  0
 12  4  1  0
 12  7  1  0
 13 15  1  0
 13 14  2  0
 15 16  1  0
 16 17  1  6
 17 18  1  0
 18 19  2  0
 18 22  1  0
 20 21  2  0
 20 16  1  0
 23 24  1  0
 24 25  1  0
 25 27  1  0
 25 26  1  6
 27 28  1  6
 28 20  1  0
 29 30  1  0
 29 27  1  0
 31 29  2  0
M  END
$$$$
