WDI.pdb
     RDKit          3D

 31 32  0  0  1  0  0  0  0  0999 V2000
    8.4841  -18.1383   20.8582 N   0  0  0  0  0  0  0  0  0  0  0  0
    8.8035  -16.9218   21.5926 C   0  0  1  0  0  0  0  0  0  0  0  0
    7.5088  -16.2125   21.9457 C   0  0  0  0  0  0  0  0  0  0  0  0
    7.0508  -15.3100   20.8942 C   0  0  0  0  0  0  0  0  0  0  0  0
    6.0249  -15.5687   20.0099 C   0  0  0  0  0  0  0  0  0  0  0  0
    5.8977  -14.5131   19.1980 N   0  0  0  0  0  0  0  0  0  0  0  0
    6.8055  -13.5451   19.5037 C   0  0  0  0  0  0  0  0  0  0  0  0
    7.0664  -12.3037   18.9681 C   0  0  0  0  0  0  0  0  0  0  0  0
    8.0820  -11.5368   19.5123 C   0  0  0  0  0  0  0  0  0  0  0  0
    8.8067  -12.0467   20.5856 C   0  0  0  0  0  0  0  0  0  0  0  0
    8.5396  -13.2849   21.1126 C   0  0  0  0  0  0  0  0  0  0  0  0
    7.5255  -14.0666   20.5779 C   0  0  0  0  0  0  0  0  0  0  0  0
    9.3879  -17.3831   22.9070 C   0  0  0  0  0  0  0  0  0  0  0  0
    8.6195  -17.9899   23.7179 O   0  0  0  0  0  0  0  0  0  0  0  0
   10.7545  -17.1532   23.2372 N   0  0  0  0  0  0  0  0  0  0  0  0
   11.2045  -17.4741   24.5695 C   0  0  1  0  0  0  0  0  0  0  0  0
   12.6312  -18.0461   24.4328 C   0  0  0  0  0  0  0  0  0  0  0  0
   12.7007  -19.2174   25.3401 C   0  0  0  0  0  0  0  0  0  0  0  0
   12.5427  -20.3962   24.9000 O   0  0  0  0  0  0  0  0  0  0  0  0
   11.2290  -16.2894   25.4549 C   0  0  0  0  0  0  0  0  0  0  0  0
   12.1201  -15.4263   25.2701 O   0  0  0  0  0  0  0  0  0  0  0  0
   12.9411  -19.0055   26.6928 O   0  0  0  0  0  0  0  0  0  0  0  0
    6.9496  -13.6187   26.9001 C   0  0  0  0  0  0  0  0  0  0  0  0
    8.0716  -14.5920   27.0426 C   0  0  0  0  0  0  0  0  0  0  0  0
    9.4130  -13.9488   27.3075 C   0  0  2  0  0  0  0  0  0  0  0  0
    9.7815  -13.1659   26.0695 C   0  0  0  0  0  0  0  0  0  0  0  0
   10.4268  -15.0742   27.5347 C   0  0  2  0  0  0  0  0  0  0  0  0
   10.2991  -16.0810   26.4971 N   0  0  0  0  0  0  0  0  0  0  0  0
   10.0777  -15.7330   28.8171 C   0  0  0  0  0  0  0  0  0  0  0  0
   10.2086  -15.1023   30.0406 O   0  0  0  0  0  0  0  0  0  0  0  0
    9.6482  -16.9066   28.7883 O   0  0  0  0  0  0  0  0  0  0  0  0
  2  1  1  6
  2  3  1  0
  2 13  1  0
  3  4  1  0
  4  5  2  0
  5  6  1  0
  7  6  1  0
  8  7  2  0
  9  8  1  0
 10 11  1  0
 10  9  2  0
 11 12  2  0
 12  4  1  0
 12  7  1  0
 13 15  1  0
 13 14  2  0
 15 16  1  0
 16 17  1  6
 17 18  1  0
 18 19  2  0
 18 22  1  0
 20 21  2  0
 20 16  1  0
 23 24  1  0
 24 25  1  0
 25 27  1  0
 25 26  1  6
 27 28  1  6
 28 20  1  0
 29 30  1  0
 29 27  1  0
 31 29  2  0
M  END
$$$$
