WDI.pdb
     RDKit          3D

 31 32  0  0  1  0  0  0  0  0999 V2000
    6.7343  -18.5498   22.7903 N   0  0  0  0  0  0  0  0  0  0  0  0
    7.4012  -17.2600   22.9040 C   0  0  1  0  0  0  0  0  0  0  0  0
    6.6141  -16.3885   23.8658 C   0  0  0  0  0  0  0  0  0  0  0  0
    7.0166  -14.9863   23.8207 C   0  0  0  0  0  0  0  0  0  0  0  0
    7.7733  -14.4037   22.8261 C   0  0  0  0  0  0  0  0  0  0  0  0
    7.9368  -13.1111   23.1291 N   0  0  0  0  0  0  0  0  0  0  0  0
    7.3141  -12.7975   24.2990 C   0  0  0  0  0  0  0  0  0  0  0  0
    7.1982  -11.6258   25.0129 C   0  0  0  0  0  0  0  0  0  0  0  0
    6.4830  -11.6287   26.1979 C   0  0  0  0  0  0  0  0  0  0  0  0
    5.9029  -12.8182   26.6289 C   0  0  0  0  0  0  0  0  0  0  0  0
    6.0239  -13.9809   25.9108 C   0  0  0  0  0  0  0  0  0  0  0  0
    6.7384  -13.9951   24.7214 C   0  0  0  0  0  0  0  0  0  0  0  0
    8.7161  -17.5425   23.5917 C   0  0  0  0  0  0  0  0  0  0  0  0
    8.6928  -18.2426   24.6526 O   0  0  0  0  0  0  0  0  0  0  0  0
    9.9486  -17.0476   23.0764 N   0  0  0  0  0  0  0  0  0  0  0  0
   11.1688  -17.3830   23.7687 C   0  0  1  0  0  0  0  0  0  0  0  0
   12.3205  -17.1963   22.7588 C   0  0  0  0  0  0  0  0  0  0  0  0
   12.0193  -18.0872   21.6118 C   0  0  0  0  0  0  0  0  0  0  0  0
   11.8250  -19.3289   21.7811 O   0  0  0  0  0  0  0  0  0  0  0  0
   11.4005  -16.5213   24.9484 C   0  0  0  0  0  0  0  0  0  0  0  0
   12.2474  -15.6008   24.8562 O   0  0  0  0  0  0  0  0  0  0  0  0
   11.9546  -17.5398   20.3356 O   0  0  0  0  0  0  0  0  0  0  0  0
    9.7744  -12.5518   27.2205 C   0  0  0  0  0  0  0  0  0  0  0  0
   10.5137  -13.8063   26.8946 C   0  0  0  0  0  0  0  0  0  0  0  0
   10.2195  -14.9540   27.8325 C   0  0  2  0  0  0  0  0  0  0  0  0
   10.5526  -14.4824   29.2283 C   0  0  0  0  0  0  0  0  0  0  0  0
   11.1373  -16.1160   27.4409 C   0  0  2  0  0  0  0  0  0  0  0  0
   10.7156  -16.6825   26.1729 N   0  0  0  0  0  0  0  0  0  0  0  0
   10.9682  -17.1779   28.4627 C   0  0  0  0  0  0  0  0  0  0  0  0
   11.7470  -17.2478   29.6030 O   0  0  0  0  0  0  0  0  0  0  0  0
   10.0853  -18.0445   28.2833 O   0  0  0  0  0  0  0  0  0  0  0  0
  2  1  1  1
  2  3  1  0
  2 13  1  0
  3  4  1  0
  4  5  2  0
  5  6  1  0
  7  6  1  0
  8  7  2  0
  9  8  1  0
 10 11  1  0
 10  9  2  0
 11 12  2  0
 12  4  1  0
 12  7  1  0
 13 15  1  0
 13 14  2  0
 15 16  1  0
 16 17  1  6
 17 18  1  0
 18 19  2  0
 18 22  1  0
 20 21  2  0
 20 16  1  0
 23 24  1  0
 24 25  1  0
 25 27  1  0
 25 26  1  1
 27 28  1  6
 28 20  1  0
 29 30  1  0
 29 27  1  0
 31 29  2  0
M  END
$$$$
