WDI.pdb
     RDKit          3D

 31 32  0  0  1  0  0  0  0  0999 V2000
    6.6268  -17.9232   24.1117 N   0  0  0  0  0  0  0  0  0  0  0  0
    7.5271  -16.7875   23.9666 C   0  0  1  0  0  0  0  0  0  0  0  0
    7.7705  -16.1814   25.3369 C   0  0  0  0  0  0  0  0  0  0  0  0
    6.8376  -15.1052   25.6555 C   0  0  0  0  0  0  0  0  0  0  0  0
    5.5914  -15.2696   26.2224 C   0  0  0  0  0  0  0  0  0  0  0  0
    5.0340  -14.0617   26.3625 N   0  0  0  0  0  0  0  0  0  0  0  0
    5.8634  -13.0815   25.9084 C   0  0  0  0  0  0  0  0  0  0  0  0
    5.7436  -11.7116   25.8392 C   0  0  0  0  0  0  0  0  0  0  0  0
    6.7868  -10.9715   25.3103 C   0  0  0  0  0  0  0  0  0  0  0  0
    7.9249  -11.6380   24.8659 C   0  0  0  0  0  0  0  0  0  0  0  0
    8.0352  -13.0036   24.9387 C   0  0  0  0  0  0  0  0  0  0  0  0
    6.9981  -13.7601   25.4653 C   0  0  0  0  0  0  0  0  0  0  0  0
    8.8522  -17.3726   23.5379 C   0  0  0  0  0  0  0  0  0  0  0  0
    9.1511  -18.5351   23.9567 O   0  0  0  0  0  0  0  0  0  0  0  0
    9.7448  -16.6553   22.6905 N   0  0  0  0  0  0  0  0  0  0  0  0
   11.1555  -16.9448   22.7736 C   0  0  1  0  0  0  0  0  0  0  0  0
   11.8413  -16.1509   21.6420 C   0  0  0  0  0  0  0  0  0  0  0  0
   13.2423  -16.6343   21.5818 C   0  0  0  0  0  0  0  0  0  0  0  0
   13.5967  -17.6902   22.1881 O   0  0  0  0  0  0  0  0  0  0  0  0
   11.7343  -16.5499   24.0763 C   0  0  0  0  0  0  0  0  0  0  0  0
   12.7221  -15.7770   24.0792 O   0  0  0  0  0  0  0  0  0  0  0  0
   14.1723  -15.9072   20.8476 O   0  0  0  0  0  0  0  0  0  0  0  0
   10.5449  -13.7587   29.0079 C   0  0  0  0  0  0  0  0  0  0  0  0
   11.2837  -14.9220   28.4358 C   0  0  0  0  0  0  0  0  0  0  0  0
   10.8075  -15.3374   27.0633 C   0  0  2  0  0  0  0  0  0  0  0  0
    9.3690  -15.7753   27.2068 C   0  0  0  0  0  0  0  0  0  0  0  0
   11.6710  -16.5201   26.6143 C   0  0  2  0  0  0  0  0  0  0  0  0
   11.2301  -16.9986   25.3169 N   0  0  0  0  0  0  0  0  0  0  0  0
   11.4454  -17.6248   27.5783 C   0  0  0  0  0  0  0  0  0  0  0  0
   10.7904  -18.7931   27.2353 O   0  0  0  0  0  0  0  0  0  0  0  0
   11.8649  -17.4916   28.7483 O   0  0  0  0  0  0  0  0  0  0  0  0
  2  1  1  1
  2  3  1  0
  2 13  1  0
  3  4  1  0
  4  5  2  0
  5  6  1  0
  7  6  1  0
  8  7  2  0
  9  8  1  0
 10 11  1  0
 10  9  2  0
 11 12  2  0
 12  4  1  0
 12  7  1  0
 13 15  1  0
 13 14  2  0
 15 16  1  0
 16 17  1  6
 17 18  1  0
 18 19  2  0
 18 22  1  0
 20 21  2  0
 20 16  1  0
 23 24  1  0
 24 25  1  0
 25 27  1  0
 25 26  1  1
 27 28  1  6
 28 20  1  0
 29 30  1  0
 29 27  1  0
 31 29  2  0
M  END
$$$$
