WDI.pdb
     RDKit          3D

 31 32  0  0  1  0  0  0  0  0999 V2000
    6.4364  -17.9127   22.5050 N   0  0  0  0  0  0  0  0  0  0  0  0
    7.4172  -16.9810   23.0448 C   0  0  1  0  0  0  0  0  0  0  0  0
    7.2528  -16.9209   24.5526 C   0  0  0  0  0  0  0  0  0  0  0  0
    6.6741  -15.6619   25.0109 C   0  0  0  0  0  0  0  0  0  0  0  0
    5.6544  -15.5391   25.9310 C   0  0  0  0  0  0  0  0  0  0  0  0
    5.3955  -14.2371   26.0958 N   0  0  0  0  0  0  0  0  0  0  0  0
    6.2081  -13.4714   25.3160 C   0  0  0  0  0  0  0  0  0  0  0  0
    6.3229  -12.1110   25.1366 C   0  0  0  0  0  0  0  0  0  0  0  0
    7.2688  -11.6275   24.2493 C   0  0  0  0  0  0  0  0  0  0  0  0
    8.0747  -12.5344   23.5672 C   0  0  0  0  0  0  0  0  0  0  0  0
    7.9530  -13.8883   23.7524 C   0  0  0  0  0  0  0  0  0  0  0  0
    7.0090  -14.3892   24.6374 C   0  0  0  0  0  0  0  0  0  0  0  0
    8.7626  -17.6252   22.8062 C   0  0  0  0  0  0  0  0  0  0  0  0
    9.0504  -17.9763   21.6188 O   0  0  0  0  0  0  0  0  0  0  0  0
    9.6876  -17.8354   23.8690 N   0  0  0  0  0  0  0  0  0  0  0  0
   11.0276  -17.3206   23.7277 C   0  0  1  0  0  0  0  0  0  0  0  0
   10.9990  -16.3177   22.5552 C   0  0  0  0  0  0  0  0  0  0  0  0
   12.3930  -16.2144   22.0593 C   0  0  0  0  0  0  0  0  0  0  0  0
   13.3784  -16.3178   22.8508 O   0  0  0  0  0  0  0  0  0  0  0  0
   11.4990  -16.6372   24.9520 C   0  0  0  0  0  0  0  0  0  0  0  0
   12.6810  -16.2190   24.9828 O   0  0  0  0  0  0  0  0  0  0  0  0
   12.6087  -15.9980   20.7031 O   0  0  0  0  0  0  0  0  0  0  0  0
    9.2650  -12.7505   27.2791 C   0  0  0  0  0  0  0  0  0  0  0  0
   10.3175  -13.7765   27.0222 C   0  0  0  0  0  0  0  0  0  0  0  0
   10.2902  -14.9394   27.9866 C   0  0  2  0  0  0  0  0  0  0  0  0
   10.8783  -14.4495   29.2888 C   0  0  0  0  0  0  0  0  0  0  0  0
   11.1715  -16.0459   27.3993 C   0  0  2  0  0  0  0  0  0  0  0  0
   10.6847  -16.4312   26.0873 N   0  0  0  0  0  0  0  0  0  0  0  0
   11.0321  -17.2352   28.2749 C   0  0  0  0  0  0  0  0  0  0  0  0
   10.2679  -18.3335   27.9266 O   0  0  0  0  0  0  0  0  0  0  0  0
   11.6304  -17.2423   29.3725 O   0  0  0  0  0  0  0  0  0  0  0  0
  2  1  1  6
  2  3  1  0
  2 13  1  0
  3  4  1  0
  4  5  2  0
  5  6  1  0
  7  6  1  0
  8  7  2  0
  9  8  1  0
 10 11  1  0
 10  9  2  0
 11 12  2  0
 12  4  1  0
 12  7  1  0
 13 15  1  0
 13 14  2  0
 15 16  1  0
 16 17  1  6
 17 18  1  0
 18 19  2  0
 18 22  1  0
 20 21  2  0
 20 16  1  0
 23 24  1  0
 24 25  1  0
 25 27  1  0
 25 26  1  1
 27 28  1  6
 28 20  1  0
 29 30  1  0
 29 27  1  0
 31 29  2  0
M  END
$$$$
