SHY.pdb
     RDKit          3D

 29 30  0  0  1  0  0  0  0  0999 V2000
   35.4881   -4.4617  -13.0931 O   0  0  0  0  0  0  0  0  0  0  0  0
   35.0783   -5.0044  -14.3004 C   0  0  0  0  0  0  0  0  0  0  0  0
   35.8048   -6.2907  -14.6258 C   0  0  2  0  0  0  0  0  0  0  0  0
   37.1515   -5.9463  -15.0236 N   0  0  0  0  0  0  0  0  0  0  0  0
   35.1068   -6.9097  -15.7958 C   0  0  0  0  0  0  0  0  0  0  0  0
   35.2573   -6.4718  -16.9656 O   0  0  0  0  0  0  0  0  0  0  0  0
   34.2380   -8.0317  -15.6101 N   0  0  0  0  0  0  0  0  0  0  0  0
   33.4764   -8.5731  -16.7182 C   0  0  1  0  0  0  0  0  0  0  0  0
   33.1508  -10.0380  -16.5162 C   0  0  0  0  0  0  0  0  0  0  0  0
   32.4540  -10.6392  -17.6582 C   0  0  0  0  0  0  0  0  0  0  0  0
   33.0946  -11.2614  -18.7261 C   0  0  0  0  0  0  0  0  0  0  0  0
   32.1419  -11.6787  -19.5579 N   0  0  0  0  0  0  0  0  0  0  0  0
   30.9510  -11.3353  -19.0384 C   0  0  0  0  0  0  0  0  0  0  0  0
   31.1314  -10.6895  -17.8594 N   0  0  0  0  0  0  0  0  0  0  0  0
   32.2080   -7.7943  -16.8828 C   0  0  0  0  0  0  0  0  0  0  0  0
   31.5060   -7.5387  -15.8709 O   0  0  0  0  0  0  0  0  0  0  0  0
   25.8510   -2.4649  -19.3861 O   0  0  0  0  0  0  0  0  0  0  0  0
   27.0618   -3.1344  -19.2015 C   0  0  0  0  0  0  0  0  0  0  0  0
   27.9138   -3.4152  -20.2437 C   0  0  0  0  0  0  0  0  0  0  0  0
   29.1043   -4.0768  -20.0411 C   0  0  0  0  0  0  0  0  0  0  0  0
   29.4961   -4.4910  -18.7632 C   0  0  0  0  0  0  0  0  0  0  0  0
   30.7669   -5.2167  -18.5861 C   0  0  0  0  0  0  0  0  0  0  0  0
   30.4898   -6.6780  -18.3314 C   0  0  2  0  0  0  0  0  0  0  0  0
   31.7692   -7.3335  -18.1424 N   0  0  0  0  0  0  0  0  0  0  0  0
   29.8281   -7.2723  -19.5101 C   0  0  0  0  0  0  0  0  0  0  0  0
   30.4850   -7.8223  -20.5995 O   0  0  0  0  0  0  0  0  0  0  0  0
   28.6503   -4.2146  -17.7166 C   0  0  0  0  0  0  0  0  0  0  0  0
   27.4451   -3.5413  -17.9426 C   0  0  0  0  0  0  0  0  0  0  0  0
   28.5597   -7.3023  -19.5765 O   0  0  0  0  0  0  0  0  0  0  0  0
  2  1  1  0
  3  2  1  0
  3  4  1  6
  5  3  1  0
  5  7  1  0
  6  5  2  0
  8  7  1  0
  8  9  1  1
 10  9  1  0
 11 10  2  0
 12 13  1  0
 12 11  1  0
 13 14  2  0
 14 10  1  0
 15  8  1  0
 16 15  2  0
 17 18  1  0
 18 19  2  0
 18 28  1  0
 19 20  1  0
 20 21  2  0
 21 22  1  0
 23 22  1  6
 23 24  1  0
 23 25  1  0
 24 15  1  0
 25 26  1  0
 27 21  1  0
 28 27  2  0
 29 25  2  0
M  END
$$$$
