SHY.pdb
     RDKit          3D

 29 30  0  0  1  0  0  0  0  0999 V2000
   20.6713  -12.6396    6.8584 O   0  0  0  0  0  0  0  0  0  0  0  0
   20.3808  -12.1805    5.5837 C   0  0  0  0  0  0  0  0  0  0  0  0
   18.8981  -11.9624    5.3777 C   0  0  2  0  0  0  0  0  0  0  0  0
   18.3930  -11.2562    6.5337 N   0  0  0  0  0  0  0  0  0  0  0  0
   18.2549  -13.3125    5.3264 C   0  0  0  0  0  0  0  0  0  0  0  0
   17.6222  -13.7834    6.3067 O   0  0  0  0  0  0  0  0  0  0  0  0
   18.3449  -14.1133    4.1437 N   0  0  0  0  0  0  0  0  0  0  0  0
   17.6996  -15.4092    4.0729 C   0  0  1  0  0  0  0  0  0  0  0  0
   17.6843  -15.9551    2.6606 C   0  0  0  0  0  0  0  0  0  0  0  0
   16.8769  -17.1713    2.5185 C   0  0  0  0  0  0  0  0  0  0  0  0
   16.2697  -17.8356    3.5806 C   0  0  0  0  0  0  0  0  0  0  0  0
   15.6308  -18.8844    3.0654 N   0  0  0  0  0  0  0  0  0  0  0  0
   15.8256  -18.8831    1.7358 C   0  0  0  0  0  0  0  0  0  0  0  0
   16.5975  -17.8248    1.3840 N   0  0  0  0  0  0  0  0  0  0  0  0
   18.4071  -16.3716    4.9762 C   0  0  0  0  0  0  0  0  0  0  0  0
   19.6600  -16.4654    4.9165 O   0  0  0  0  0  0  0  0  0  0  0  0
   23.7500  -16.0694    9.4744 O   0  0  0  0  0  0  0  0  0  0  0  0
   22.4398  -16.4326    9.1583 C   0  0  0  0  0  0  0  0  0  0  0  0
   22.0238  -17.7431    9.1388 C   0  0  0  0  0  0  0  0  0  0  0  0
   20.7265  -18.0812    8.8245 C   0  0  0  0  0  0  0  0  0  0  0  0
   19.7768  -17.1023    8.5116 C   0  0  0  0  0  0  0  0  0  0  0  0
   18.4026  -17.5016    8.1581 C   0  0  0  0  0  0  0  0  0  0  0  0
   18.3874  -18.1160    6.7799 C   0  0  2  0  0  0  0  0  0  0  0  0
   17.7128  -17.1829    5.8987 N   0  0  0  0  0  0  0  0  0  0  0  0
   17.6189  -19.3766    6.8049 C   0  0  0  0  0  0  0  0  0  0  0  0
   18.1378  -20.6194    7.1320 O   0  0  0  0  0  0  0  0  0  0  0  0
   20.1846  -15.7905    8.5285 C   0  0  0  0  0  0  0  0  0  0  0  0
   21.5069  -15.4671    8.8504 C   0  0  0  0  0  0  0  0  0  0  0  0
   16.3834  -19.3715    6.5088 O   0  0  0  0  0  0  0  0  0  0  0  0
  2  1  1  0
  3  2  1  0
  3  4  1  1
  5  3  1  0
  5  7  1  0
  6  5  2  0
  8  7  1  0
  8  9  1  6
 10  9  1  0
 11 10  2  0
 12 13  1  0
 12 11  1  0
 13 14  2  0
 14 10  1  0
 15  8  1  0
 16 15  2  0
 17 18  1  0
 18 19  2  0
 18 28  1  0
 19 20  1  0
 20 21  2  0
 21 22  1  0
 23 22  1  1
 23 24  1  0
 23 25  1  0
 24 15  1  0
 25 26  1  0
 27 21  1  0
 28 27  2  0
 29 25  2  0
M  END
$$$$
