SHY.pdb
     RDKit          3D

 29 30  0  0  1  0  0  0  0  0999 V2000
   23.1635   -8.6701  -22.2851 O   0  0  0  0  0  0  0  0  0  0  0  0
   22.3846   -8.3106  -21.1969 C   0  0  0  0  0  0  0  0  0  0  0  0
   22.2555   -9.4319  -20.1897 C   0  0  2  0  0  0  0  0  0  0  0  0
   21.3681  -10.4262  -20.7504 N   0  0  0  0  0  0  0  0  0  0  0  0
   21.6134   -8.8568  -18.9666 C   0  0  0  0  0  0  0  0  0  0  0  0
   20.3756   -8.6395  -18.9072 O   0  0  0  0  0  0  0  0  0  0  0  0
   22.4031   -8.5351  -17.8172 N   0  0  0  0  0  0  0  0  0  0  0  0
   21.8057   -7.9006  -16.6591 C   0  0  1  0  0  0  0  0  0  0  0  0
   21.7044   -8.8512  -15.4849 C   0  0  0  0  0  0  0  0  0  0  0  0
   20.5965   -9.8048  -15.6055 C   0  0  0  0  0  0  0  0  0  0  0  0
   19.6944   -9.8256  -16.6657 C   0  0  0  0  0  0  0  0  0  0  0  0
   18.8413  -10.8201  -16.4272 N   0  0  0  0  0  0  0  0  0  0  0  0
   19.1888  -11.4023  -15.2670 C   0  0  0  0  0  0  0  0  0  0  0  0
   20.2768  -10.7811  -14.7472 N   0  0  0  0  0  0  0  0  0  0  0  0
   22.6170   -6.7040  -16.2686 C   0  0  0  0  0  0  0  0  0  0  0  0
   23.8679   -6.7394  -16.3959 O   0  0  0  0  0  0  0  0  0  0  0  0
   18.8807   -2.2290  -20.0430 O   0  0  0  0  0  0  0  0  0  0  0  0
   19.9671   -2.6242  -19.2606 C   0  0  0  0  0  0  0  0  0  0  0  0
   20.6395   -3.8040  -19.4773 C   0  0  0  0  0  0  0  0  0  0  0  0
   21.7093   -4.1762  -18.6944 C   0  0  0  0  0  0  0  0  0  0  0  0
   22.1566   -3.3668  -17.6442 C   0  0  0  0  0  0  0  0  0  0  0  0
   23.2910   -3.8071  -16.8122 C   0  0  0  0  0  0  0  0  0  0  0  0
   22.7836   -4.3248  -15.4887 C   0  0  2  0  0  0  0  0  0  0  0  0
   22.0235   -5.5295  -15.7591 N   0  0  0  0  0  0  0  0  0  0  0  0
   21.8816   -3.3286  -14.8770 C   0  0  0  0  0  0  0  0  0  0  0  0
   20.5456   -3.5421  -14.5764 O   0  0  0  0  0  0  0  0  0  0  0  0
   21.4899   -2.1866  -17.4210 C   0  0  0  0  0  0  0  0  0  0  0  0
   20.4054   -1.8258  -18.2273 C   0  0  0  0  0  0  0  0  0  0  0  0
   22.3187   -2.1711  -14.5881 O   0  0  0  0  0  0  0  0  0  0  0  0
  2  1  1  0
  3  2  1  0
  3  4  1  6
  5  3  1  0
  5  7  1  0
  6  5  2  0
  8  7  1  0
  8  9  1  1
 10  9  1  0
 11 10  2  0
 12 13  1  0
 12 11  1  0
 13 14  2  0
 14 10  1  0
 15  8  1  0
 16 15  2  0
 17 18  1  0
 18 19  2  0
 18 28  1  0
 19 20  1  0
 20 21  2  0
 21 22  1  0
 23 22  1  6
 23 24  1  0
 23 25  1  0
 24 15  1  0
 25 26  1  0
 27 21  1  0
 28 27  2  0
 29 25  2  0
M  END
$$$$
