SHY.pdb
     RDKit          3D

 29 30  0  0  1  0  0  0  0  0999 V2000
   29.1070  -22.2053  -16.0088 O   0  0  0  0  0  0  0  0  0  0  0  0
   27.8971  -22.8613  -15.8475 C   0  0  0  0  0  0  0  0  0  0  0  0
   26.7468  -22.1024  -16.4714 C   0  0  2  0  0  0  0  0  0  0  0  0
   27.2555  -21.4126  -17.6358 N   0  0  0  0  0  0  0  0  0  0  0  0
   26.2959  -21.0827  -15.4735 C   0  0  0  0  0  0  0  0  0  0  0  0
   25.8363  -19.9663  -15.8275 O   0  0  0  0  0  0  0  0  0  0  0  0
   26.3776  -21.3561  -14.0711 N   0  0  0  0  0  0  0  0  0  0  0  0
   25.3732  -20.8516  -13.1559 C   0  0  1  0  0  0  0  0  0  0  0  0
   24.0021  -21.4209  -13.4538 C   0  0  0  0  0  0  0  0  0  0  0  0
   22.9347  -20.8078  -12.6564 C   0  0  0  0  0  0  0  0  0  0  0  0
   22.3326  -21.4143  -11.5574 C   0  0  0  0  0  0  0  0  0  0  0  0
   21.4187  -20.5613  -11.0983 N   0  0  0  0  0  0  0  0  0  0  0  0
   21.4420  -19.4636  -11.8732 C   0  0  0  0  0  0  0  0  0  0  0  0
   22.3788  -19.6044  -12.8438 N   0  0  0  0  0  0  0  0  0  0  0  0
   25.7624  -21.1878  -11.7494 C   0  0  0  0  0  0  0  0  0  0  0  0
   25.4915  -22.3272  -11.2907 O   0  0  0  0  0  0  0  0  0  0  0  0
   28.7532  -20.2615   -3.5071 O   0  0  0  0  0  0  0  0  0  0  0  0
   28.4124  -20.0180   -4.8387 C   0  0  0  0  0  0  0  0  0  0  0  0
   27.3637  -19.2019   -5.1924 C   0  0  0  0  0  0  0  0  0  0  0  0
   27.0433  -18.9740   -6.5121 C   0  0  0  0  0  0  0  0  0  0  0  0
   27.7738  -19.5651   -7.5489 C   0  0  0  0  0  0  0  0  0  0  0  0
   27.3890  -19.3169   -8.9501 C   0  0  0  0  0  0  0  0  0  0  0  0
   26.7342  -20.5483   -9.5261 C   0  0  2  0  0  0  0  0  0  0  0  0
   26.4272  -20.2647  -10.9145 N   0  0  0  0  0  0  0  0  0  0  0  0
   25.4705  -20.8205   -8.8125 C   0  0  0  0  0  0  0  0  0  0  0  0
   25.2985  -21.7924   -7.8396 O   0  0  0  0  0  0  0  0  0  0  0  0
   28.8229  -20.3822   -7.2038 C   0  0  0  0  0  0  0  0  0  0  0  0
   29.1329  -20.6013   -5.8574 C   0  0  0  0  0  0  0  0  0  0  0  0
   24.4326  -20.1378   -9.0789 O   0  0  0  0  0  0  0  0  0  0  0  0
  2  1  1  0
  3  2  1  0
  3  4  1  6
  5  3  1  0
  5  7  1  0
  6  5  2  0
  8  7  1  0
  8  9  1  6
 10  9  1  0
 11 10  2  0
 12 13  1  0
 12 11  1  0
 13 14  2  0
 14 10  1  0
 15  8  1  0
 16 15  2  0
 17 18  1  0
 18 19  2  0
 18 28  1  0
 19 20  1  0
 20 21  2  0
 21 22  1  0
 23 22  1  1
 23 24  1  0
 23 25  1  0
 24 15  1  0
 25 26  1  0
 27 21  1  0
 28 27  2  0
 29 25  2  0
M  END
$$$$
