SHY.pdb
     RDKit          3D

 29 30  0  0  1  0  0  0  0  0999 V2000
   29.1820  -22.3992  -16.1430 O   0  0  0  0  0  0  0  0  0  0  0  0
   28.5871  -21.6040  -15.1767 C   0  0  0  0  0  0  0  0  0  0  0  0
   27.1716  -21.2178  -15.5450 C   0  0  2  0  0  0  0  0  0  0  0  0
   27.2463  -20.1597  -16.5276 N   0  0  0  0  0  0  0  0  0  0  0  0
   26.5250  -20.6749  -14.3096 C   0  0  0  0  0  0  0  0  0  0  0  0
   26.6500  -19.4699  -13.9704 O   0  0  0  0  0  0  0  0  0  0  0  0
   25.7368  -21.5256  -13.4711 N   0  0  0  0  0  0  0  0  0  0  0  0
   24.9883  -20.9822  -12.3551 C   0  0  1  0  0  0  0  0  0  0  0  0
   23.5684  -21.5068  -12.3197 C   0  0  0  0  0  0  0  0  0  0  0  0
   22.7049  -20.9105  -13.3444 C   0  0  0  0  0  0  0  0  0  0  0  0
   22.1580  -19.6331  -13.2598 C   0  0  0  0  0  0  0  0  0  0  0  0
   21.4392  -19.4467  -14.3654 N   0  0  0  0  0  0  0  0  0  0  0  0
   21.5279  -20.5579  -15.1160 C   0  0  0  0  0  0  0  0  0  0  0  0
   22.3107  -21.4738  -14.4931 N   0  0  0  0  0  0  0  0  0  0  0  0
   25.6822  -21.3229  -11.0725 C   0  0  0  0  0  0  0  0  0  0  0  0
   26.1359  -22.4844  -10.9070 O   0  0  0  0  0  0  0  0  0  0  0  0
   29.5671  -20.1748   -3.2485 O   0  0  0  0  0  0  0  0  0  0  0  0
   29.0544  -20.0187   -4.5374 C   0  0  0  0  0  0  0  0  0  0  0  0
   27.9027  -19.3113   -4.7906 C   0  0  0  0  0  0  0  0  0  0  0  0
   27.4130  -19.1684   -6.0695 C   0  0  0  0  0  0  0  0  0  0  0  0
   28.0692  -19.7388   -7.1660 C   0  0  0  0  0  0  0  0  0  0  0  0
   27.5045  -19.5847   -8.5189 C   0  0  0  0  0  0  0  0  0  0  0  0
   26.5220  -20.6969   -8.7923 C   0  0  2  0  0  0  0  0  0  0  0  0
   25.8464  -20.3802  -10.0355 N   0  0  0  0  0  0  0  0  0  0  0  0
   25.5165  -20.7500   -7.7124 C   0  0  0  0  0  0  0  0  0  0  0  0
   25.6661  -21.4365   -6.5178 O   0  0  0  0  0  0  0  0  0  0  0  0
   29.2204  -20.4475   -6.9214 C   0  0  0  0  0  0  0  0  0  0  0  0
   29.7021  -20.5813   -5.6150 C   0  0  0  0  0  0  0  0  0  0  0  0
   24.4120  -20.1359   -7.8442 O   0  0  0  0  0  0  0  0  0  0  0  0
  2  1  1  0
  3  2  1  0
  3  4  1  6
  5  3  1  0
  5  7  1  0
  6  5  2  0
  8  7  1  0
  8  9  1  1
 10  9  1  0
 11 10  2  0
 12 13  1  0
 12 11  1  0
 13 14  2  0
 14 10  1  0
 15  8  1  0
 16 15  2  0
 17 18  1  0
 18 19  2  0
 18 28  1  0
 19 20  1  0
 20 21  2  0
 21 22  1  0
 23 22  1  1
 23 24  1  0
 23 25  1  0
 24 15  1  0
 25 26  1  0
 27 21  1  0
 28 27  2  0
 29 25  2  0
M  END
$$$$
