SHY.pdb
     RDKit          3D

 29 30  0  0  1  0  0  0  0  0999 V2000
   28.1856  -21.7410  -14.8382 O   0  0  0  0  0  0  0  0  0  0  0  0
   27.2414  -22.1561  -15.7635 C   0  0  0  0  0  0  0  0  0  0  0  0
   26.2552  -21.0612  -16.1056 C   0  0  2  0  0  0  0  0  0  0  0  0
   26.9775  -20.0216  -16.8041 N   0  0  0  0  0  0  0  0  0  0  0  0
   25.7482  -20.5023  -14.8134 C   0  0  0  0  0  0  0  0  0  0  0  0
   25.9144  -19.2946  -14.5025 O   0  0  0  0  0  0  0  0  0  0  0  0
   25.0516  -21.3402  -13.8856 N   0  0  0  0  0  0  0  0  0  0  0  0
   24.3946  -20.7761  -12.7233 C   0  0  1  0  0  0  0  0  0  0  0  0
   22.9730  -21.2774  -12.5803 C   0  0  0  0  0  0  0  0  0  0  0  0
   22.0386  -20.6442  -13.5169 C   0  0  0  0  0  0  0  0  0  0  0  0
   22.2283  -19.3851  -14.0797 C   0  0  0  0  0  0  0  0  0  0  0  0
   21.1814  -19.1537  -14.8697 N   0  0  0  0  0  0  0  0  0  0  0  0
   20.3656  -20.2198  -14.8089 C   0  0  0  0  0  0  0  0  0  0  0  0
   20.8867  -21.1518  -13.9725 N   0  0  0  0  0  0  0  0  0  0  0  0
   25.1744  -21.1179  -11.4913 C   0  0  0  0  0  0  0  0  0  0  0  0
   25.4129  -22.3245  -11.2280 O   0  0  0  0  0  0  0  0  0  0  0  0
   29.2818  -20.0365   -3.7396 O   0  0  0  0  0  0  0  0  0  0  0  0
   28.7172  -19.8120   -4.9963 C   0  0  0  0  0  0  0  0  0  0  0  0
   27.9380  -18.7117   -5.2670 C   0  0  0  0  0  0  0  0  0  0  0  0
   27.3900  -18.5078   -6.5136 C   0  0  0  0  0  0  0  0  0  0  0  0
   27.6043  -19.4142   -7.5579 C   0  0  0  0  0  0  0  0  0  0  0  0
   26.9838  -19.1759   -8.8735 C   0  0  0  0  0  0  0  0  0  0  0  0
   26.3473  -20.4484   -9.3764 C   0  0  2  0  0  0  0  0  0  0  0  0
   25.6548  -20.1269  -10.6090 N   0  0  0  0  0  0  0  0  0  0  0  0
   25.3565  -20.9317   -8.3941 C   0  0  0  0  0  0  0  0  0  0  0  0
   23.9939  -20.6850   -8.4498 O   0  0  0  0  0  0  0  0  0  0  0  0
   28.3814  -20.5163   -7.2954 C   0  0  0  0  0  0  0  0  0  0  0  0
   28.9296  -20.7059   -6.0225 C   0  0  0  0  0  0  0  0  0  0  0  0
   25.7358  -21.6298   -7.4027 O   0  0  0  0  0  0  0  0  0  0  0  0
  2  1  1  0
  3  2  1  0
  3  4  1  1
  5  3  1  0
  5  7  1  0
  6  5  2  0
  8  7  1  0
  8  9  1  1
 10  9  1  0
 11 10  2  0
 12 13  1  0
 12 11  1  0
 13 14  2  0
 14 10  1  0
 15  8  1  0
 16 15  2  0
 17 18  1  0
 18 19  2  0
 18 28  1  0
 19 20  1  0
 20 21  2  0
 21 22  1  0
 23 22  1  1
 23 24  1  0
 23 25  1  0
 24 15  1  0
 25 26  1  0
 27 21  1  0
 28 27  2  0
 29 25  2  0
M  END
$$$$
