SHY.pdb
     RDKit          3D

 29 30  0  0  1  0  0  0  0  0999 V2000
   27.0418   -7.7782  -20.3620 O   0  0  0  0  0  0  0  0  0  0  0  0
   26.0902   -8.3798  -19.5540 C   0  0  0  0  0  0  0  0  0  0  0  0
   26.3037   -9.8724  -19.4319 C   0  0  2  0  0  0  0  0  0  0  0  0
   26.0045  -10.4656  -20.7161 N   0  0  0  0  0  0  0  0  0  0  0  0
   25.3144  -10.3807  -18.4309 C   0  0  0  0  0  0  0  0  0  0  0  0
   24.2698  -10.9886  -18.7806 O   0  0  0  0  0  0  0  0  0  0  0  0
   25.5353  -10.1852  -17.0305 N   0  0  0  0  0  0  0  0  0  0  0  0
   24.6568  -10.7888  -16.0483 C   0  0  1  0  0  0  0  0  0  0  0  0
   25.3980  -11.7515  -15.1449 C   0  0  0  0  0  0  0  0  0  0  0  0
   25.8476  -12.9647  -15.8359 C   0  0  0  0  0  0  0  0  0  0  0  0
   25.6548  -13.2089  -17.1928 C   0  0  0  0  0  0  0  0  0  0  0  0
   26.1934  -14.3991  -17.4513 N   0  0  0  0  0  0  0  0  0  0  0  0
   26.7044  -14.8860  -16.3078 C   0  0  0  0  0  0  0  0  0  0  0  0
   26.4961  -14.0049  -15.2978 N   0  0  0  0  0  0  0  0  0  0  0  0
   24.0162   -9.7163  -15.2223 C   0  0  0  0  0  0  0  0  0  0  0  0
   24.7404   -8.9608  -14.5245 O   0  0  0  0  0  0  0  0  0  0  0  0
   25.0135   -3.9168  -17.8422 O   0  0  0  0  0  0  0  0  0  0  0  0
   24.0945   -4.8028  -17.2774 C   0  0  0  0  0  0  0  0  0  0  0  0
   23.3005   -4.4576  -16.2091 C   0  0  0  0  0  0  0  0  0  0  0  0
   22.3996   -5.3460  -15.6661 C   0  0  0  0  0  0  0  0  0  0  0  0
   22.2552   -6.6392  -16.1808 C   0  0  0  0  0  0  0  0  0  0  0  0
   21.2967   -7.5716  -15.5605 C   0  0  0  0  0  0  0  0  0  0  0  0
   21.9973   -8.4046  -14.5153 C   0  0  2  0  0  0  0  0  0  0  0  0
   22.6188   -9.5219  -15.1991 N   0  0  0  0  0  0  0  0  0  0  0  0
   21.0084   -8.9337  -13.5549 C   0  0  0  0  0  0  0  0  0  0  0  0
   20.5996   -8.2910  -12.3971 O   0  0  0  0  0  0  0  0  0  0  0  0
   23.0451   -6.9920  -17.2480 C   0  0  0  0  0  0  0  0  0  0  0  0
   23.9545   -6.0753  -17.7858 C   0  0  0  0  0  0  0  0  0  0  0  0
   20.4648  -10.0630  -13.7627 O   0  0  0  0  0  0  0  0  0  0  0  0
  2  1  1  0
  3  2  1  0
  3  4  1  6
  5  3  1  0
  5  7  1  0
  6  5  2  0
  8  7  1  0
  8  9  1  1
 10  9  1  0
 11 10  2  0
 12 13  1  0
 12 11  1  0
 13 14  2  0
 14 10  1  0
 15  8  1  0
 16 15  2  0
 17 18  1  0
 18 19  2  0
 18 28  1  0
 19 20  1  0
 20 21  2  0
 21 22  1  0
 23 22  1  6
 23 24  1  0
 23 25  1  0
 24 15  1  0
 25 26  1  0
 27 21  1  0
 28 27  2  0
 29 25  2  0
M  END
$$$$
