SHY.pdb
     RDKit          3D

 29 30  0  0  1  0  0  0  0  0999 V2000
   30.8616  -18.7156  -15.4647 O   0  0  0  0  0  0  0  0  0  0  0  0
   29.6830  -18.5268  -14.7609 C   0  0  0  0  0  0  0  0  0  0  0  0
   28.5256  -19.2891  -15.3672 C   0  0  2  0  0  0  0  0  0  0  0  0
   28.1523  -18.6193  -16.5929 N   0  0  0  0  0  0  0  0  0  0  0  0
   27.3821  -19.1957  -14.4066 C   0  0  0  0  0  0  0  0  0  0  0  0
   26.8254  -18.0986  -14.1429 O   0  0  0  0  0  0  0  0  0  0  0  0
   26.8861  -20.3691  -13.7546 N   0  0  0  0  0  0  0  0  0  0  0  0
   25.6626  -20.3271  -12.9786 C   0  0  1  0  0  0  0  0  0  0  0  0
   24.5610  -21.1457  -13.6179 C   0  0  0  0  0  0  0  0  0  0  0  0
   23.2897  -21.0748  -12.8899 C   0  0  0  0  0  0  0  0  0  0  0  0
   23.0559  -20.2354  -11.8041 C   0  0  0  0  0  0  0  0  0  0  0  0
   21.8010  -20.4501  -11.4133 N   0  0  0  0  0  0  0  0  0  0  0  0
   21.2649  -21.3843  -12.2169 C   0  0  0  0  0  0  0  0  0  0  0  0
   22.1790  -21.7800  -13.1375 N   0  0  0  0  0  0  0  0  0  0  0  0
   25.9286  -20.8355  -11.5953 C   0  0  0  0  0  0  0  0  0  0  0  0
   26.5419  -21.9234  -11.4459 O   0  0  0  0  0  0  0  0  0  0  0  0
   30.1575  -20.2975   -4.5903 O   0  0  0  0  0  0  0  0  0  0  0  0
   29.0930  -20.0893   -5.4688 C   0  0  0  0  0  0  0  0  0  0  0  0
   28.5752  -18.8392   -5.7142 C   0  0  0  0  0  0  0  0  0  0  0  0
   27.5245  -18.6543   -6.5848 C   0  0  0  0  0  0  0  0  0  0  0  0
   26.9398  -19.7337   -7.2565 C   0  0  0  0  0  0  0  0  0  0  0  0
   25.8019  -19.5019   -8.1643 C   0  0  0  0  0  0  0  0  0  0  0  0
   25.6533  -20.6712   -9.1066 C   0  0  2  0  0  0  0  0  0  0  0  0
   25.5124  -20.1319  -10.4450 N   0  0  0  0  0  0  0  0  0  0  0  0
   24.4289  -21.4264   -8.7739 C   0  0  0  0  0  0  0  0  0  0  0  0
   23.3105  -21.5283   -9.5860 O   0  0  0  0  0  0  0  0  0  0  0  0
   27.4511  -20.9860   -7.0163 C   0  0  0  0  0  0  0  0  0  0  0  0
   28.5190  -21.1535   -6.1285 C   0  0  0  0  0  0  0  0  0  0  0  0
   24.3471  -22.0453   -7.6673 O   0  0  0  0  0  0  0  0  0  0  0  0
  2  1  1  0
  3  2  1  0
  3  4  1  6
  5  3  1  0
  5  7  1  0
  6  5  2  0
  8  7  1  0
  8  9  1  6
 10  9  1  0
 11 10  2  0
 12 13  1  0
 12 11  1  0
 13 14  2  0
 14 10  1  0
 15  8  1  0
 16 15  2  0
 17 18  1  0
 18 19  2  0
 18 28  1  0
 19 20  1  0
 20 21  2  0
 21 22  1  0
 23 22  1  1
 23 24  1  0
 23 25  1  0
 24 15  1  0
 25 26  1  0
 27 21  1  0
 28 27  2  0
 29 25  2  0
M  END
$$$$
