SHY.pdb
     RDKit          3D

 29 30  0  0  1  0  0  0  0  0999 V2000
   26.6181  -27.6706  -17.3598 O   0  0  0  0  0  0  0  0  0  0  0  0
   26.8173  -29.0393  -17.2752 C   0  0  0  0  0  0  0  0  0  0  0  0
   27.9776  -29.5028  -18.1279 C   0  0  2  0  0  0  0  0  0  0  0  0
   27.5163  -29.5745  -19.4963 N   0  0  0  0  0  0  0  0  0  0  0  0
   28.3373  -30.8826  -17.6741 C   0  0  0  0  0  0  0  0  0  0  0  0
   27.7235  -31.8988  -18.0907 O   0  0  0  0  0  0  0  0  0  0  0  0
   29.4039  -31.0833  -16.7414 N   0  0  0  0  0  0  0  0  0  0  0  0
   29.7056  -32.4059  -16.2308 C   0  0  1  0  0  0  0  0  0  0  0  0
   31.0441  -32.4458  -15.5242 C   0  0  0  0  0  0  0  0  0  0  0  0
   32.1695  -32.7018  -16.4292 C   0  0  0  0  0  0  0  0  0  0  0  0
   32.0321  -33.1366  -17.7446 C   0  0  0  0  0  0  0  0  0  0  0  0
   33.2616  -33.2558  -18.2423 N   0  0  0  0  0  0  0  0  0  0  0  0
   34.1379  -32.9115  -17.2834 C   0  0  0  0  0  0  0  0  0  0  0  0
   33.4724  -32.5657  -16.1533 N   0  0  0  0  0  0  0  0  0  0  0  0
   28.6258  -32.8373  -15.2871 C   0  0  0  0  0  0  0  0  0  0  0  0
   28.3090  -32.0869  -14.3286 O   0  0  0  0  0  0  0  0  0  0  0  0
   20.8772  -34.9320  -12.3596 O   0  0  0  0  0  0  0  0  0  0  0  0
   22.0495  -34.5680  -13.0241 C   0  0  0  0  0  0  0  0  0  0  0  0
   22.2784  -34.8883  -14.3416 C   0  0  0  0  0  0  0  0  0  0  0  0
   23.4417  -34.5199  -14.9796 C   0  0  0  0  0  0  0  0  0  0  0  0
   24.4403  -33.8028  -14.3113 C   0  0  0  0  0  0  0  0  0  0  0  0
   25.6827  -33.4443  -15.0190 C   0  0  0  0  0  0  0  0  0  0  0  0
   26.7796  -34.4121  -14.6482 C   0  0  2  0  0  0  0  0  0  0  0  0
   27.9461  -34.0650  -15.4362 N   0  0  0  0  0  0  0  0  0  0  0  0
   26.3698  -35.7869  -14.9975 C   0  0  0  0  0  0  0  0  0  0  0  0
   25.8908  -36.7277  -14.0997 O   0  0  0  0  0  0  0  0  0  0  0  0
   24.2194  -33.4792  -12.9946 C   0  0  0  0  0  0  0  0  0  0  0  0
   23.0311  -33.8623  -12.3639 C   0  0  0  0  0  0  0  0  0  0  0  0
   26.4467  -36.1843  -16.2018 O   0  0  0  0  0  0  0  0  0  0  0  0
  2  1  1  0
  3  2  1  0
  3  4  1  6
  5  3  1  0
  5  7  1  0
  6  5  2  0
  8  7  1  0
  8  9  1  1
 10  9  1  0
 11 10  2  0
 12 13  1  0
 12 11  1  0
 13 14  2  0
 14 10  1  0
 15  8  1  0
 16 15  2  0
 17 18  1  0
 18 19  2  0
 18 28  1  0
 19 20  1  0
 20 21  2  0
 21 22  1  0
 23 22  1  6
 23 24  1  0
 23 25  1  0
 24 15  1  0
 25 26  1  0
 27 21  1  0
 28 27  2  0
 29 25  2  0
M  END
$$$$
