SHY.pdb
     RDKit          3D

 29 30  0  0  1  0  0  0  0  0999 V2000
   21.9529  -14.0423  -20.2189 O   0  0  0  0  0  0  0  0  0  0  0  0
   21.7886  -15.4017  -20.4315 C   0  0  0  0  0  0  0  0  0  0  0  0
   20.5087  -15.7143  -21.1748 C   0  0  2  0  0  0  0  0  0  0  0  0
   20.5525  -15.0143  -22.4391 N   0  0  0  0  0  0  0  0  0  0  0  0
   19.3792  -15.1615  -20.3638 C   0  0  0  0  0  0  0  0  0  0  0  0
   19.1027  -15.6083  -19.2206 O   0  0  0  0  0  0  0  0  0  0  0  0
   18.5739  -14.0951  -20.8759 N   0  0  0  0  0  0  0  0  0  0  0  0
   17.5264  -13.5014  -20.0690 C   0  0  1  0  0  0  0  0  0  0  0  0
   17.5603  -11.9887  -20.1250 C   0  0  0  0  0  0  0  0  0  0  0  0
   18.7224  -11.4098  -19.4428 C   0  0  0  0  0  0  0  0  0  0  0  0
   19.8133  -10.8456  -20.0984 C   0  0  0  0  0  0  0  0  0  0  0  0
   20.6584  -10.4317  -19.1560 N   0  0  0  0  0  0  0  0  0  0  0  0
   20.1251  -10.7216  -17.9571 C   0  0  0  0  0  0  0  0  0  0  0  0
   18.9235  -11.3289  -18.1218 N   0  0  0  0  0  0  0  0  0  0  0  0
   16.1920  -13.9921  -20.5397 C   0  0  0  0  0  0  0  0  0  0  0  0
   15.9752  -14.0994  -21.7740 O   0  0  0  0  0  0  0  0  0  0  0  0
   15.0927  -18.7479  -15.2334 O   0  0  0  0  0  0  0  0  0  0  0  0
   14.8013  -18.1422  -16.4568 C   0  0  0  0  0  0  0  0  0  0  0  0
   13.5334  -17.7255  -16.7881 C   0  0  0  0  0  0  0  0  0  0  0  0
   13.2660  -17.1298  -18.0003 C   0  0  0  0  0  0  0  0  0  0  0  0
   14.2762  -16.9239  -18.9465 C   0  0  0  0  0  0  0  0  0  0  0  0
   13.9499  -16.3033  -20.2431 C   0  0  0  0  0  0  0  0  0  0  0  0
   13.8621  -14.8052  -20.0850 C   0  0  2  0  0  0  0  0  0  0  0  0
   15.1618  -14.3410  -19.6407 N   0  0  0  0  0  0  0  0  0  0  0  0
   12.8652  -14.4714  -19.0482 C   0  0  0  0  0  0  0  0  0  0  0  0
   13.1486  -13.8546  -17.8399 O   0  0  0  0  0  0  0  0  0  0  0  0
   15.5457  -17.3378  -18.6233 C   0  0  0  0  0  0  0  0  0  0  0  0
   15.7975  -17.9409  -17.3866 C   0  0  0  0  0  0  0  0  0  0  0  0
   11.6404  -14.7544  -19.2324 O   0  0  0  0  0  0  0  0  0  0  0  0
  2  1  1  0
  3  2  1  0
  3  4  1  6
  5  3  1  0
  5  7  1  0
  6  5  2  0
  8  7  1  0
  8  9  1  6
 10  9  1  0
 11 10  2  0
 12 13  1  0
 12 11  1  0
 13 14  2  0
 14 10  1  0
 15  8  1  0
 16 15  2  0
 17 18  1  0
 18 19  2  0
 18 28  1  0
 19 20  1  0
 20 21  2  0
 21 22  1  0
 23 22  1  1
 23 24  1  0
 23 25  1  0
 24 15  1  0
 25 26  1  0
 27 21  1  0
 28 27  2  0
 29 25  2  0
M  END
$$$$
