SHY.pdb
     RDKit          3D

 29 30  0  0  1  0  0  0  0  0999 V2000
   21.1704   -7.8196  -18.5643 O   0  0  0  0  0  0  0  0  0  0  0  0
   20.2253   -7.5946  -17.5762 C   0  0  0  0  0  0  0  0  0  0  0  0
   19.2878   -8.7690  -17.4025 C   0  0  2  0  0  0  0  0  0  0  0  0
   18.4201   -8.8133  -18.5581 N   0  0  0  0  0  0  0  0  0  0  0  0
   18.4533   -8.4941  -16.1912 C   0  0  0  0  0  0  0  0  0  0  0  0
   17.5616   -7.6066  -16.1876 O   0  0  0  0  0  0  0  0  0  0  0  0
   18.6519   -9.2451  -14.9892 N   0  0  0  0  0  0  0  0  0  0  0  0
   17.7327   -9.1213  -13.8753 C   0  0  1  0  0  0  0  0  0  0  0  0
   17.3437  -10.4720  -13.3125 C   0  0  0  0  0  0  0  0  0  0  0  0
   16.3554  -11.1790  -14.1339 C   0  0  0  0  0  0  0  0  0  0  0  0
   15.7742  -10.6526  -15.2842 C   0  0  0  0  0  0  0  0  0  0  0  0
   14.9362  -11.5765  -15.7509 N   0  0  0  0  0  0  0  0  0  0  0  0
   14.9855  -12.6404  -14.9314 C   0  0  0  0  0  0  0  0  0  0  0  0
   15.8629  -12.4059  -13.9239 N   0  0  0  0  0  0  0  0  0  0  0  0
   18.3587   -8.2895  -12.7988 C   0  0  0  0  0  0  0  0  0  0  0  0
   19.5215   -8.5641  -12.4055 O   0  0  0  0  0  0  0  0  0  0  0  0
   23.1706   -5.1958  -14.8551 O   0  0  0  0  0  0  0  0  0  0  0  0
   22.0394   -5.1592  -14.0381 C   0  0  0  0  0  0  0  0  0  0  0  0
   22.1177   -5.2511  -12.6683 C   0  0  0  0  0  0  0  0  0  0  0  0
   20.9898   -5.2128  -11.8794 C   0  0  0  0  0  0  0  0  0  0  0  0
   19.7152   -5.0785  -12.4412 C   0  0  0  0  0  0  0  0  0  0  0  0
   18.5278   -5.0637  -11.5679 C   0  0  0  0  0  0  0  0  0  0  0  0
   18.2317   -6.4620  -11.0840 C   0  0  2  0  0  0  0  0  0  0  0  0
   17.6853   -7.2004  -12.2057 N   0  0  0  0  0  0  0  0  0  0  0  0
   17.2151   -6.4140  -10.0142 C   0  0  0  0  0  0  0  0  0  0  0  0
   17.4293   -5.9311   -8.7329 O   0  0  0  0  0  0  0  0  0  0  0  0
   19.6285   -4.9865  -13.8092 C   0  0  0  0  0  0  0  0  0  0  0  0
   20.7859   -5.0272  -14.5936 C   0  0  0  0  0  0  0  0  0  0  0  0
   16.0390   -6.8393  -10.2382 O   0  0  0  0  0  0  0  0  0  0  0  0
  2  1  1  0
  3  2  1  0
  3  4  1  6
  5  3  1  0
  5  7  1  0
  6  5  2  0
  8  7  1  0
  8  9  1  1
 10  9  1  0
 11 10  2  0
 12 13  1  0
 12 11  1  0
 13 14  2  0
 14 10  1  0
 15  8  1  0
 16 15  2  0
 17 18  1  0
 18 19  2  0
 18 28  1  0
 19 20  1  0
 20 21  2  0
 21 22  1  0
 23 22  1  6
 23 24  1  0
 23 25  1  0
 24 15  1  0
 25 26  1  0
 27 21  1  0
 28 27  2  0
 29 25  2  0
M  END
$$$$
