SHY.pdb
     RDKit          3D

 29 30  0  0  1  0  0  0  0  0999 V2000
   28.7502  -23.3020  -16.2100 O   0  0  0  0  0  0  0  0  0  0  0  0
   28.0667  -23.4280  -17.4087 C   0  0  0  0  0  0  0  0  0  0  0  0
   27.5820  -22.0948  -17.9342 C   0  0  2  0  0  0  0  0  0  0  0  0
   28.7461  -21.2988  -18.2533 N   0  0  0  0  0  0  0  0  0  0  0  0
   26.8376  -21.4248  -16.8225 C   0  0  0  0  0  0  0  0  0  0  0  0
   27.1566  -20.2814  -16.4054 O   0  0  0  0  0  0  0  0  0  0  0  0
   25.7282  -22.0775  -16.1971 N   0  0  0  0  0  0  0  0  0  0  0  0
   24.9043  -21.3798  -15.2301 C   0  0  1  0  0  0  0  0  0  0  0  0
   23.4476  -21.7786  -15.3382 C   0  0  0  0  0  0  0  0  0  0  0  0
   22.5911  -21.1177  -14.3478 C   0  0  0  0  0  0  0  0  0  0  0  0
   22.0706  -19.8350  -14.4956 C   0  0  0  0  0  0  0  0  0  0  0  0
   21.3501  -19.5826  -13.4043 N   0  0  0  0  0  0  0  0  0  0  0  0
   21.4125  -20.6587  -12.6018 C   0  0  0  0  0  0  0  0  0  0  0  0
   22.1798  -21.6183  -13.1763 N   0  0  0  0  0  0  0  0  0  0  0  0
   25.4026  -21.6663  -13.8472 C   0  0  0  0  0  0  0  0  0  0  0  0
   25.7490  -22.8377  -13.5474 O   0  0  0  0  0  0  0  0  0  0  0  0
   28.5017  -20.3624   -5.7257 O   0  0  0  0  0  0  0  0  0  0  0  0
   28.1465  -20.2498   -7.0709 C   0  0  0  0  0  0  0  0  0  0  0  0
   27.1563  -19.3984   -7.5017 C   0  0  0  0  0  0  0  0  0  0  0  0
   26.8205  -19.3015   -8.8336 C   0  0  0  0  0  0  0  0  0  0  0  0
   27.4751  -20.0673   -9.8048 C   0  0  0  0  0  0  0  0  0  0  0  0
   27.0745  -19.9546  -11.2189 C   0  0  0  0  0  0  0  0  0  0  0  0
   25.9621  -20.9305  -11.5144 C   0  0  2  0  0  0  0  0  0  0  0  0
   25.4980  -20.6612  -12.8614 N   0  0  0  0  0  0  0  0  0  0  0  0
   24.8419  -20.7069  -10.5789 C   0  0  0  0  0  0  0  0  0  0  0  0
   24.6488  -21.3913   -9.3893 O   0  0  0  0  0  0  0  0  0  0  0  0
   28.4654  -20.9207   -9.3824 C   0  0  0  0  0  0  0  0  0  0  0  0
   28.7922  -21.0049   -8.0249 C   0  0  0  0  0  0  0  0  0  0  0  0
   23.9604  -19.8310  -10.8436 O   0  0  0  0  0  0  0  0  0  0  0  0
  2  1  1  0
  3  2  1  0
  3  4  1  1
  5  3  1  0
  5  7  1  0
  6  5  2  0
  8  7  1  0
  8  9  1  1
 10  9  1  0
 11 10  2  0
 12 13  1  0
 12 11  1  0
 13 14  2  0
 14 10  1  0
 15  8  1  0
 16 15  2  0
 17 18  1  0
 18 19  2  0
 18 28  1  0
 19 20  1  0
 20 21  2  0
 21 22  1  0
 23 22  1  1
 23 24  1  0
 23 25  1  0
 24 15  1  0
 25 26  1  0
 27 21  1  0
 28 27  2  0
 29 25  2  0
M  END
$$$$
