SHY.pdb
     RDKit          3D

 29 30  0  0  1  0  0  0  0  0999 V2000
   29.7642  -35.1942  -17.4623 O   0  0  0  0  0  0  0  0  0  0  0  0
   31.0436  -34.7150  -17.6938 C   0  0  0  0  0  0  0  0  0  0  0  0
   31.3901  -33.5498  -16.7935 C   0  0  2  0  0  0  0  0  0  0  0  0
   30.9441  -33.8785  -15.4580 N   0  0  0  0  0  0  0  0  0  0  0  0
   30.6102  -32.3684  -17.2783 C   0  0  0  0  0  0  0  0  0  0  0  0
   29.8251  -31.7373  -16.5244 O   0  0  0  0  0  0  0  0  0  0  0  0
   30.7399  -31.9206  -18.6313 N   0  0  0  0  0  0  0  0  0  0  0  0
   30.0851  -30.7073  -19.0785 C   0  0  1  0  0  0  0  0  0  0  0  0
   30.4028  -30.3956  -20.5258 C   0  0  0  0  0  0  0  0  0  0  0  0
   29.9275  -29.0750  -20.9517 C   0  0  0  0  0  0  0  0  0  0  0  0
   29.2639  -28.1770  -20.1202 C   0  0  0  0  0  0  0  0  0  0  0  0
   28.9932  -27.0991  -20.8540 N   0  0  0  0  0  0  0  0  0  0  0  0
   29.4650  -27.3067  -22.0950 C   0  0  0  0  0  0  0  0  0  0  0  0
   30.0472  -28.5296  -22.1683 N   0  0  0  0  0  0  0  0  0  0  0  0
   28.6037  -30.8449  -18.9075 C   0  0  0  0  0  0  0  0  0  0  0  0
   28.0328  -31.8947  -19.3002 O   0  0  0  0  0  0  0  0  0  0  0  0
   20.6345  -30.6217  -15.4392 O   0  0  0  0  0  0  0  0  0  0  0  0
   21.9863  -30.4350  -15.7327 C   0  0  0  0  0  0  0  0  0  0  0  0
   22.9079  -31.4508  -15.6334 C   0  0  0  0  0  0  0  0  0  0  0  0
   24.2375  -31.2467  -15.9278 C   0  0  0  0  0  0  0  0  0  0  0  0
   24.7056  -29.9943  -16.3409 C   0  0  0  0  0  0  0  0  0  0  0  0
   26.1394  -29.8060  -16.6262 C   0  0  0  0  0  0  0  0  0  0  0  0
   26.3924  -29.9718  -18.1047 C   0  0  2  0  0  0  0  0  0  0  0  0
   27.8197  -29.8310  -18.3169 N   0  0  0  0  0  0  0  0  0  0  0  0
   25.6995  -28.9029  -18.8514 C   0  0  0  0  0  0  0  0  0  0  0  0
   24.4466  -29.0204  -19.4321 O   0  0  0  0  0  0  0  0  0  0  0  0
   23.7911  -28.9741  -16.4422 C   0  0  0  0  0  0  0  0  0  0  0  0
   22.4446  -29.2012  -16.1390 C   0  0  0  0  0  0  0  0  0  0  0  0
   26.2569  -27.7711  -19.0013 O   0  0  0  0  0  0  0  0  0  0  0  0
  2  1  1  0
  3  2  1  0
  3  4  1  1
  5  3  1  0
  5  7  1  0
  6  5  2  0
  8  7  1  0
  8  9  1  6
 10  9  1  0
 11 10  2  0
 12 13  1  0
 12 11  1  0
 13 14  2  0
 14 10  1  0
 15  8  1  0
 16 15  2  0
 17 18  1  0
 18 19  2  0
 18 28  1  0
 19 20  1  0
 20 21  2  0
 21 22  1  0
 23 22  1  1
 23 24  1  0
 23 25  1  0
 24 15  1  0
 25 26  1  0
 27 21  1  0
 28 27  2  0
 29 25  2  0
M  END
$$$$
