SHY.pdb
     RDKit          3D

 29 30  0  0  1  0  0  0  0  0999 V2000
   20.4384  -13.6091  -15.4849 O   0  0  0  0  0  0  0  0  0  0  0  0
   20.6498  -12.4079  -16.1426 C   0  0  0  0  0  0  0  0  0  0  0  0
   19.4501  -11.9842  -16.9608 C   0  0  2  0  0  0  0  0  0  0  0  0
   19.5403  -12.6411  -18.2456 N   0  0  0  0  0  0  0  0  0  0  0  0
   19.5583  -10.5069  -17.1731 C   0  0  0  0  0  0  0  0  0  0  0  0
   20.1923  -10.0213  -18.1452 O   0  0  0  0  0  0  0  0  0  0  0  0
   18.9341   -9.5967  -16.2620 N   0  0  0  0  0  0  0  0  0  0  0  0
   19.0501   -8.1638  -16.4470 C   0  0  1  0  0  0  0  0  0  0  0  0
   17.6954   -7.4885  -16.4838 C   0  0  0  0  0  0  0  0  0  0  0  0
   16.9333   -7.7849  -17.7014 C   0  0  0  0  0  0  0  0  0  0  0  0
   17.3718   -7.4908  -18.9896 C   0  0  0  0  0  0  0  0  0  0  0  0
   16.4202   -7.9035  -19.8250 N   0  0  0  0  0  0  0  0  0  0  0  0
   15.4238   -8.4351  -19.0967 C   0  0  0  0  0  0  0  0  0  0  0  0
   15.7304   -8.3675  -17.7772 N   0  0  0  0  0  0  0  0  0  0  0  0
   19.8727   -7.5803  -15.3399 C   0  0  0  0  0  0  0  0  0  0  0  0
   19.5604   -7.8236  -14.1460 O   0  0  0  0  0  0  0  0  0  0  0  0
   24.4292  -12.0162  -15.3505 O   0  0  0  0  0  0  0  0  0  0  0  0
   24.1419  -10.6530  -15.2635 C   0  0  0  0  0  0  0  0  0  0  0  0
   24.2442   -9.8090  -16.3443 C   0  0  0  0  0  0  0  0  0  0  0  0
   23.9561   -8.4667  -16.2382 C   0  0  0  0  0  0  0  0  0  0  0  0
   23.5465   -7.9060  -15.0234 C   0  0  0  0  0  0  0  0  0  0  0  0
   23.2678   -6.4608  -14.9407 C   0  0  0  0  0  0  0  0  0  0  0  0
   21.8329   -6.2398  -14.5292 C   0  0  2  0  0  0  0  0  0  0  0  0
   20.9941   -6.7612  -15.5907 N   0  0  0  0  0  0  0  0  0  0  0  0
   21.5712   -4.7931  -14.3925 C   0  0  0  0  0  0  0  0  0  0  0  0
   22.0779   -3.9833  -13.3884 O   0  0  0  0  0  0  0  0  0  0  0  0
   23.4422   -8.7425  -13.9386 C   0  0  0  0  0  0  0  0  0  0  0  0
   23.7391  -10.1035  -14.0664 C   0  0  0  0  0  0  0  0  0  0  0  0
   20.8278   -4.2012  -15.2358 O   0  0  0  0  0  0  0  0  0  0  0  0
  2  1  1  0
  3  2  1  0
  3  4  1  6
  5  3  1  0
  5  7  1  0
  6  5  2  0
  8  7  1  0
  8  9  1  1
 10  9  1  0
 11 10  2  0
 12 13  1  0
 12 11  1  0
 13 14  2  0
 14 10  1  0
 15  8  1  0
 16 15  2  0
 17 18  1  0
 18 19  2  0
 18 28  1  0
 19 20  1  0
 20 21  2  0
 21 22  1  0
 23 22  1  6
 23 24  1  0
 23 25  1  0
 24 15  1  0
 25 26  1  0
 27 21  1  0
 28 27  2  0
 29 25  2  0
M  END
$$$$
