QHS.pdb
     RDKit          3D

 26 26  0  0  1  0  0  0  0  0999 V2000
   20.5965  -14.8427  -17.5986 N   0  0  0  0  0  0  0  0  0  0  0  0
   20.3830  -14.6478  -19.0007 C   0  0  0  0  0  0  0  0  0  0  0  0
   19.6178  -15.4275  -19.6068 O   0  0  0  0  0  0  0  0  0  0  0  0
   21.0618  -13.5468  -19.6639 C   0  0  0  0  0  0  0  0  0  0  0  0
   21.9566  -12.7033  -18.8193 C   0  0  0  0  0  0  0  0  0  0  0  0
   21.8907  -11.2385  -19.0774 C   0  0  2  0  0  0  0  0  0  0  0  0
   22.6424  -10.8530  -20.2279 N   0  0  0  0  0  0  0  0  0  0  0  0
   22.1822  -10.4357  -17.8565 C   0  0  0  0  0  0  0  0  0  0  0  0
   21.5287  -10.7080  -16.7993 O   0  0  0  0  0  0  0  0  0  0  0  0
   23.1246   -9.4109  -17.8189 N   0  0  0  0  0  0  0  0  0  0  0  0
   23.4561   -8.6689  -16.5951 C   0  0  1  0  0  0  0  0  0  0  0  0
   24.9019   -8.3469  -16.5447 C   0  0  0  0  0  0  0  0  0  0  0  0
   25.8090   -9.4570  -16.2796 C   0  0  0  0  0  0  0  0  0  0  0  0
   25.4682  -10.7681  -16.0515 C   0  0  0  0  0  0  0  0  0  0  0  0
   26.5828  -11.4935  -15.8425 N   0  0  0  0  0  0  0  0  0  0  0  0
   27.6097  -10.6274  -15.9423 C   0  0  0  0  0  0  0  0  0  0  0  0
   27.1444   -9.3911  -16.2075 N   0  0  0  0  0  0  0  0  0  0  0  0
   22.6920   -7.3666  -16.6799 C   0  0  0  0  0  0  0  0  0  0  0  0
   22.6457   -6.7545  -17.7832 O   0  0  0  0  0  0  0  0  0  0  0  0
   19.0836   -4.6694  -15.0305 O   0  0  0  0  0  0  0  0  0  0  0  0
   19.8812   -5.7938  -14.9558 C   0  0  0  0  0  0  0  0  0  0  0  0
   21.2087   -5.6091  -15.6529 C   0  0  2  0  0  0  0  0  0  0  0  0
   22.0268   -6.8033  -15.5796 N   0  0  0  0  0  0  0  0  0  0  0  0
   21.9583   -4.4350  -15.1534 C   0  0  0  0  0  0  0  0  0  0  0  0
   21.7813   -3.1780  -15.7332 O   0  0  0  0  0  0  0  0  0  0  0  0
   22.7627   -4.5229  -14.2118 O   0  0  0  0  0  0  0  0  0  0  0  0
  2  3  2  0
  2  1  1  0
  4  2  1  0
  5  6  1  0
  5  4  1  0
  6  7  1  6
  8  6  1  0
  8  9  2  0
 10  8  1  0
 11 10  1  0
 12 13  1  0
 11 12  1  6
 13 14  2  0
 14 15  1  0
 16 15  1  0
 17 13  1  0
 17 16  2  0
 18 11  1  0
 19 18  2  0
 21 20  1  0
 22 23  1  0
 22 21  1  1
 23 18  1  0
 24 22  1  0
 25 24  1  0
 26 24  2  0
M  END
$$$$
