QHS.pdb
     RDKit          3D

 26 26  0  0  1  0  0  0  0  0999 V2000
   19.1613  -14.0721  -15.0505 N   0  0  0  0  0  0  0  0  0  0  0  0
   19.0762  -14.4714  -16.4227 C   0  0  0  0  0  0  0  0  0  0  0  0
   18.2323  -15.3335  -16.7470 O   0  0  0  0  0  0  0  0  0  0  0  0
   19.9724  -13.8542  -17.3863 C   0  0  0  0  0  0  0  0  0  0  0  0
   20.9521  -12.8634  -16.8533 C   0  0  0  0  0  0  0  0  0  0  0  0
   21.0034  -11.5603  -17.5715 C   0  0  2  0  0  0  0  0  0  0  0  0
   21.8000  -11.6203  -18.7544 N   0  0  0  0  0  0  0  0  0  0  0  0
   21.3376  -10.4271  -16.6635 C   0  0  0  0  0  0  0  0  0  0  0  0
   20.8799  -10.4650  -15.4769 O   0  0  0  0  0  0  0  0  0  0  0  0
   22.1171   -9.3392  -17.0489 N   0  0  0  0  0  0  0  0  0  0  0  0
   22.3803   -8.1893  -16.1734 C   0  0  1  0  0  0  0  0  0  0  0  0
   23.7978   -7.7661  -16.2644 C   0  0  0  0  0  0  0  0  0  0  0  0
   24.7964   -8.7286  -15.8152 C   0  0  0  0  0  0  0  0  0  0  0  0
   24.6501   -9.6740  -14.8293 C   0  0  0  0  0  0  0  0  0  0  0  0
   25.7945  -10.3714  -14.7006 N   0  0  0  0  0  0  0  0  0  0  0  0
   26.6448   -9.8541  -15.6084 C   0  0  0  0  0  0  0  0  0  0  0  0
   26.0430   -8.8575  -16.2865 N   0  0  0  0  0  0  0  0  0  0  0  0
   21.5229   -7.0611  -16.7015 C   0  0  0  0  0  0  0  0  0  0  0  0
   21.4729   -6.8615  -17.9472 O   0  0  0  0  0  0  0  0  0  0  0  0
   17.9072   -6.1437  -15.5060 O   0  0  0  0  0  0  0  0  0  0  0  0
   18.6781   -4.9985  -15.5080 C   0  0  0  0  0  0  0  0  0  0  0  0
   19.9289   -5.1442  -16.3427 C   0  0  2  0  0  0  0  0  0  0  0  0
   20.7747   -6.2194  -15.8636 N   0  0  0  0  0  0  0  0  0  0  0  0
   20.6986   -3.8843  -16.4442 C   0  0  0  0  0  0  0  0  0  0  0  0
   20.1245   -2.7425  -17.0047 O   0  0  0  0  0  0  0  0  0  0  0  0
   21.8691   -3.7968  -16.0396 O   0  0  0  0  0  0  0  0  0  0  0  0
  2  3  2  0
  2  1  1  0
  4  2  1  0
  5  6  1  0
  5  4  1  0
  6  7  1  6
  8  6  1  0
  8  9  2  0
 10  8  1  0
 11 10  1  0
 12 13  1  0
 11 12  1  6
 13 14  2  0
 14 15  1  0
 16 15  1  0
 17 13  1  0
 17 16  2  0
 18 11  1  0
 19 18  2  0
 21 20  1  0
 22 23  1  0
 22 21  1  1
 23 18  1  0
 24 22  1  0
 25 24  1  0
 26 24  2  0
M  END
$$$$
