QHS.pdb
     RDKit          3D

 26 26  0  0  1  0  0  0  0  0999 V2000
   14.6697  -17.8590  -15.1318 N   0  0  0  0  0  0  0  0  0  0  0  0
   14.8555  -19.1233  -15.7772 C   0  0  0  0  0  0  0  0  0  0  0  0
   13.8844  -19.9049  -15.8602 O   0  0  0  0  0  0  0  0  0  0  0  0
   16.1665  -19.4466  -16.3153 C   0  0  0  0  0  0  0  0  0  0  0  0
   17.2245  -18.4039  -16.1776 C   0  0  0  0  0  0  0  0  0  0  0  0
   17.5797  -17.6797  -17.4290 C   0  0  2  0  0  0  0  0  0  0  0  0
   17.9083  -18.5665  -18.4980 N   0  0  0  0  0  0  0  0  0  0  0  0
   18.5830  -16.6034  -17.1940 C   0  0  0  0  0  0  0  0  0  0  0  0
   18.3700  -15.7953  -16.2347 O   0  0  0  0  0  0  0  0  0  0  0  0
   19.7295  -16.4410  -17.9679 N   0  0  0  0  0  0  0  0  0  0  0  0
   20.7467  -15.4177  -17.6917 C   0  0  1  0  0  0  0  0  0  0  0  0
   22.1097  -15.9423  -17.9440 C   0  0  0  0  0  0  0  0  0  0  0  0
   22.5640  -17.0229  -17.0772 C   0  0  0  0  0  0  0  0  0  0  0  0
   22.0472  -17.3759  -15.8542 C   0  0  0  0  0  0  0  0  0  0  0  0
   22.7360  -18.4211  -15.3588 N   0  0  0  0  0  0  0  0  0  0  0  0
   23.6770  -18.7108  -16.2782 C   0  0  0  0  0  0  0  0  0  0  0  0
   23.5758  -17.8650  -17.3220 N   0  0  0  0  0  0  0  0  0  0  0  0
   20.4886  -14.2998  -18.6769 C   0  0  0  0  0  0  0  0  0  0  0  0
   19.8447  -14.5512  -19.7334 O   0  0  0  0  0  0  0  0  0  0  0  0
   19.5540  -10.5470  -17.7617 O   0  0  0  0  0  0  0  0  0  0  0  0
   20.5860  -10.5677  -18.6783 C   0  0  0  0  0  0  0  0  0  0  0  0
   20.6994  -11.8941  -19.3925 C   0  0  2  0  0  0  0  0  0  0  0  0
   20.9356  -12.9855  -18.4685 N   0  0  0  0  0  0  0  0  0  0  0  0
   21.7269  -11.8841  -20.4575 C   0  0  0  0  0  0  0  0  0  0  0  0
   21.5863  -11.0599  -21.5748 O   0  0  0  0  0  0  0  0  0  0  0  0
   22.7400  -12.5994  -20.3978 O   0  0  0  0  0  0  0  0  0  0  0  0
  2  3  2  0
  2  1  1  0
  4  2  1  0
  5  6  1  0
  5  4  1  0
  6  7  1  6
  8  6  1  0
  8  9  2  0
 10  8  1  0
 11 10  1  0
 12 13  1  0
 11 12  1  6
 13 14  2  0
 14 15  1  0
 16 15  1  0
 17 13  1  0
 17 16  2  0
 18 11  1  0
 19 18  2  0
 21 20  1  0
 22 23  1  0
 22 21  1  1
 23 18  1  0
 24 22  1  0
 25 24  1  0
 26 24  2  0
M  END
$$$$
