QHS.pdb
     RDKit          3D

 26 26  0  0  1  0  0  0  0  0999 V2000
   25.6168  -11.6795  -20.0280 N   0  0  0  0  0  0  0  0  0  0  0  0
   25.0895  -12.9985  -19.8493 C   0  0  0  0  0  0  0  0  0  0  0  0
   25.8417  -13.9778  -20.0388 O   0  0  0  0  0  0  0  0  0  0  0  0
   23.6999  -13.1467  -19.4496 C   0  0  0  0  0  0  0  0  0  0  0  0
   22.9062  -11.8921  -19.3022 C   0  0  0  0  0  0  0  0  0  0  0  0
   23.0820  -11.1682  -18.0132 C   0  0  2  0  0  0  0  0  0  0  0  0
   22.8491  -12.0057  -16.8811 N   0  0  0  0  0  0  0  0  0  0  0  0
   22.3395   -9.8767  -17.9843 C   0  0  0  0  0  0  0  0  0  0  0  0
   22.4958   -9.0823  -18.9658 O   0  0  0  0  0  0  0  0  0  0  0  0
   21.4934   -9.5012  -16.9438 N   0  0  0  0  0  0  0  0  0  0  0  0
   20.7523   -8.2328  -16.9290 C   0  0  1  0  0  0  0  0  0  0  0  0
   19.4255   -8.4006  -16.2900 C   0  0  0  0  0  0  0  0  0  0  0  0
   18.6202   -7.1957  -16.1318 C   0  0  0  0  0  0  0  0  0  0  0  0
   18.1149   -6.6857  -14.9605 C   0  0  0  0  0  0  0  0  0  0  0  0
   17.4198   -5.5625  -15.2211 N   0  0  0  0  0  0  0  0  0  0  0  0
   17.4981   -5.3821  -16.5537 C   0  0  0  0  0  0  0  0  0  0  0  0
   18.2254   -6.3706  -17.1096 N   0  0  0  0  0  0  0  0  0  0  0  0
   21.5650   -7.2876  -16.0729 C   0  0  0  0  0  0  0  0  0  0  0  0
   22.1313   -7.7336  -15.0363 O   0  0  0  0  0  0  0  0  0  0  0  0
   23.4873   -2.8009  -15.5920 O   0  0  0  0  0  0  0  0  0  0  0  0
   22.7290   -3.6929  -16.3236 C   0  0  0  0  0  0  0  0  0  0  0  0
   22.5357   -5.0101  -15.6095 C   0  0  2  0  0  0  0  0  0  0  0  0
   21.7195   -5.9267  -16.3806 N   0  0  0  0  0  0  0  0  0  0  0  0
   21.9845   -4.8457  -14.2459 C   0  0  0  0  0  0  0  0  0  0  0  0
   22.8216   -4.8851  -13.1301 O   0  0  0  0  0  0  0  0  0  0  0  0
   20.7720   -4.6689  -14.0459 O   0  0  0  0  0  0  0  0  0  0  0  0
  2  3  2  0
  2  1  1  0
  4  2  1  0
  5  6  1  0
  5  4  1  0
  6  7  1  1
  8  6  1  0
  8  9  2  0
 10  8  1  0
 11 10  1  0
 12 13  1  0
 11 12  1  1
 13 14  2  0
 14 15  1  0
 16 15  1  0
 17 13  1  0
 17 16  2  0
 18 11  1  0
 19 18  2  0
 21 20  1  0
 22 23  1  0
 22 21  1  6
 23 18  1  0
 24 22  1  0
 25 24  1  0
 26 24  2  0
M  END
$$$$
