QHS.pdb
     RDKit          3D

 26 26  0  0  1  0  0  0  0  0999 V2000
   19.2320  -13.4514  -15.0753 N   0  0  0  0  0  0  0  0  0  0  0  0
   18.0128  -14.0207  -15.5644 C   0  0  0  0  0  0  0  0  0  0  0  0
   17.6671  -15.1479  -15.1513 O   0  0  0  0  0  0  0  0  0  0  0  0
   17.2219  -13.2624  -16.5194 C   0  0  0  0  0  0  0  0  0  0  0  0
   17.6923  -11.8822  -16.8350 C   0  0  0  0  0  0  0  0  0  0  0  0
   17.0273  -10.7875  -16.0761 C   0  0  2  0  0  0  0  0  0  0  0  0
   15.6054  -10.8282  -16.1933 N   0  0  0  0  0  0  0  0  0  0  0  0
   17.6288   -9.4547  -16.3626 C   0  0  0  0  0  0  0  0  0  0  0  0
   18.1875   -9.2885  -17.4935 O   0  0  0  0  0  0  0  0  0  0  0  0
   17.6103   -8.3945  -15.4597 N   0  0  0  0  0  0  0  0  0  0  0  0
   18.1009   -7.0496  -15.7897 C   0  0  1  0  0  0  0  0  0  0  0  0
   16.9978   -6.0602  -15.7609 C   0  0  0  0  0  0  0  0  0  0  0  0
   16.0349   -6.1241  -16.8537 C   0  0  0  0  0  0  0  0  0  0  0  0
   14.6996   -6.4338  -16.7633 C   0  0  0  0  0  0  0  0  0  0  0  0
   14.1437   -6.3933  -17.9888 N   0  0  0  0  0  0  0  0  0  0  0  0
   15.1385   -6.0583  -18.8332 C   0  0  0  0  0  0  0  0  0  0  0  0
   16.2871   -5.8941  -18.1484 N   0  0  0  0  0  0  0  0  0  0  0  0
   19.0810   -6.6859  -14.6969 C   0  0  0  0  0  0  0  0  0  0  0  0
   18.7745   -6.9239  -13.4955 O   0  0  0  0  0  0  0  0  0  0  0  0
   23.1049   -6.9866  -14.9480 O   0  0  0  0  0  0  0  0  0  0  0  0
   22.3534   -6.8353  -13.7999 C   0  0  0  0  0  0  0  0  0  0  0  0
   21.2977   -5.7633  -13.9362 C   0  0  2  0  0  0  0  0  0  0  0  0
   20.3251   -6.0914  -14.9596 N   0  0  0  0  0  0  0  0  0  0  0  0
   21.8732   -4.4215  -14.1783 C   0  0  0  0  0  0  0  0  0  0  0  0
   22.6526   -3.7950  -13.2050 O   0  0  0  0  0  0  0  0  0  0  0  0
   21.6867   -3.8105  -15.2429 O   0  0  0  0  0  0  0  0  0  0  0  0
  2  3  2  0
  2  1  1  0
  4  2  1  0
  5  6  1  0
  5  4  1  0
  6  7  1  6
  8  6  1  0
  8  9  2  0
 10  8  1  0
 11 10  1  0
 12 13  1  0
 11 12  1  1
 13 14  2  0
 14 15  1  0
 16 15  1  0
 17 13  1  0
 17 16  2  0
 18 11  1  0
 19 18  2  0
 21 20  1  0
 22 23  1  0
 22 21  1  6
 23 18  1  0
 24 22  1  0
 25 24  1  0
 26 24  2  0
M  END
$$$$
