QHS.pdb
     RDKit          3D

 26 26  0  0  1  0  0  0  0  0999 V2000
   25.2084  -11.3607  -18.4940 N   0  0  0  0  0  0  0  0  0  0  0  0
   25.5990  -11.6539  -17.1483 C   0  0  0  0  0  0  0  0  0  0  0  0
   26.7073  -12.1947  -16.9479 O   0  0  0  0  0  0  0  0  0  0  0  0
   24.6924  -11.3066  -16.0666 C   0  0  0  0  0  0  0  0  0  0  0  0
   23.3916  -10.6870  -16.4536 C   0  0  0  0  0  0  0  0  0  0  0  0
   23.0703   -9.3964  -15.7845 C   0  0  2  0  0  0  0  0  0  0  0  0
   23.2208   -9.4647  -14.3668 N   0  0  0  0  0  0  0  0  0  0  0  0
   21.7666   -8.8342  -16.2369 C   0  0  0  0  0  0  0  0  0  0  0  0
   21.5526   -8.7705  -17.4895 O   0  0  0  0  0  0  0  0  0  0  0  0
   20.7830   -8.3782  -15.3628 N   0  0  0  0  0  0  0  0  0  0  0  0
   19.4865   -7.8555  -15.8145 C   0  0  1  0  0  0  0  0  0  0  0  0
   18.3993   -8.2643  -14.8940 C   0  0  0  0  0  0  0  0  0  0  0  0
   17.8400   -9.5956  -15.0948 C   0  0  0  0  0  0  0  0  0  0  0  0
   18.1906  -10.5029  -16.0649 C   0  0  0  0  0  0  0  0  0  0  0  0
   17.4484  -11.6178  -15.9283 N   0  0  0  0  0  0  0  0  0  0  0  0
   16.6410  -11.3953  -14.8731 C   0  0  0  0  0  0  0  0  0  0  0  0
   16.8756  -10.1699  -14.3649 N   0  0  0  0  0  0  0  0  0  0  0  0
   19.6038   -6.3489  -15.7563 C   0  0  0  0  0  0  0  0  0  0  0  0
   20.2658   -5.8220  -14.8192 O   0  0  0  0  0  0  0  0  0  0  0  0
   18.5928   -2.0567  -17.9130 O   0  0  0  0  0  0  0  0  0  0  0  0
   18.5437   -3.4361  -17.9389 C   0  0  0  0  0  0  0  0  0  0  0  0
   19.1348   -4.0597  -16.6963 C   0  0  2  0  0  0  0  0  0  0  0  0
   19.0055   -5.5033  -16.7037 N   0  0  0  0  0  0  0  0  0  0  0  0
   18.5717   -3.4947  -15.4497 C   0  0  0  0  0  0  0  0  0  0  0  0
   19.1211   -2.3471  -14.8765 O   0  0  0  0  0  0  0  0  0  0  0  0
   17.6016   -4.0137  -14.8744 O   0  0  0  0  0  0  0  0  0  0  0  0
  2  3  2  0
  2  1  1  0
  4  2  1  0
  5  6  1  0
  5  4  1  0
  6  7  1  1
  8  6  1  0
  8  9  2  0
 10  8  1  0
 11 10  1  0
 12 13  1  0
 11 12  1  1
 13 14  2  0
 14 15  1  0
 16 15  1  0
 17 13  1  0
 17 16  2  0
 18 11  1  0
 19 18  2  0
 21 20  1  0
 22 23  1  0
 22 21  1  6
 23 18  1  0
 24 22  1  0
 25 24  1  0
 26 24  2  0
M  END
$$$$
