QHS.pdb
     RDKit          3D

 26 26  0  0  1  0  0  0  0  0999 V2000
   24.2650  -16.4865  -19.7205 N   0  0  0  0  0  0  0  0  0  0  0  0
   25.5786  -17.0523  -19.7840 C   0  0  0  0  0  0  0  0  0  0  0  0
   26.2959  -16.7978  -20.7747 O   0  0  0  0  0  0  0  0  0  0  0  0
   26.0284  -17.8976  -18.6905 C   0  0  0  0  0  0  0  0  0  0  0  0
   25.0433  -18.1708  -17.6040 C   0  0  0  0  0  0  0  0  0  0  0  0
   25.5720  -18.9188  -16.4303 C   0  0  2  0  0  0  0  0  0  0  0  0
   26.8368  -19.5252  -16.6946 N   0  0  0  0  0  0  0  0  0  0  0  0
   24.5592  -19.8417  -15.8451 C   0  0  0  0  0  0  0  0  0  0  0  0
   24.7284  -21.0911  -16.0162 O   0  0  0  0  0  0  0  0  0  0  0  0
   23.4469  -19.4059  -15.1292 N   0  0  0  0  0  0  0  0  0  0  0  0
   22.5268  -20.3201  -14.4394 C   0  0  1  0  0  0  0  0  0  0  0  0
   22.5897  -20.1287  -12.9711 C   0  0  0  0  0  0  0  0  0  0  0  0
   23.6935  -20.7786  -12.2749 C   0  0  0  0  0  0  0  0  0  0  0  0
   24.6766  -21.5610  -12.8305 C   0  0  0  0  0  0  0  0  0  0  0  0
   25.5147  -21.9841  -11.8656 N   0  0  0  0  0  0  0  0  0  0  0  0
   25.0462  -21.4612  -10.7159 C   0  0  0  0  0  0  0  0  0  0  0  0
   23.9418  -20.7292  -10.9601 N   0  0  0  0  0  0  0  0  0  0  0  0
   21.1383  -19.9364  -14.8997 C   0  0  0  0  0  0  0  0  0  0  0  0
   20.8690  -18.7165  -15.0822 O   0  0  0  0  0  0  0  0  0  0  0  0
   18.0598  -22.8285  -15.4560 O   0  0  0  0  0  0  0  0  0  0  0  0
   18.1411  -21.7334  -16.2927 C   0  0  0  0  0  0  0  0  0  0  0  0
   18.8079  -20.5492  -15.6330 C   0  0  2  0  0  0  0  0  0  0  0  0
   20.1278  -20.8819  -15.1349 N   0  0  0  0  0  0  0  0  0  0  0  0
   17.9826  -19.9537  -14.5585 C   0  0  0  0  0  0  0  0  0  0  0  0
   16.7735  -19.3237  -14.8558 O   0  0  0  0  0  0  0  0  0  0  0  0
   18.3305  -19.9917  -13.3673 O   0  0  0  0  0  0  0  0  0  0  0  0
  2  3  2  0
  2  1  1  0
  4  2  1  0
  5  6  1  0
  5  4  1  0
  6  7  1  6
  8  6  1  0
  8  9  2  0
 10  8  1  0
 11 10  1  0
 12 13  1  0
 11 12  1  1
 13 14  2  0
 14 15  1  0
 16 15  1  0
 17 13  1  0
 17 16  2  0
 18 11  1  0
 19 18  2  0
 21 20  1  0
 22 23  1  0
 22 21  1  1
 23 18  1  0
 24 22  1  0
 25 24  1  0
 26 24  2  0
M  END
$$$$
