YPG.pdb
     RDKit          3D

 24 25  0  0  1  0  0  0  0  0999 V2000
   19.9490  -23.6109   -6.5374 O   0  0  0  0  0  0  0  0  0  0  0  0
   20.5642  -22.8434   -7.5003 C   0  0  0  0  0  0  0  0  0  0  0  0
   21.5502  -21.9500   -7.1508 C   0  0  0  0  0  0  0  0  0  0  0  0
   22.1817  -21.1654   -8.1215 C   0  0  0  0  0  0  0  0  0  0  0  0
   21.8130  -21.2904   -9.4278 C   0  0  0  0  0  0  0  0  0  0  0  0
   22.4806  -20.4603  -10.4568 C   0  0  0  0  0  0  0  0  0  0  0  0
   23.9291  -20.9500  -10.6392 C   0  0  2  0  0  0  0  0  0  0  0  0
   24.6960  -20.3981   -9.5221 N   0  0  0  0  0  0  0  0  0  0  0  0
   24.4808  -20.4517  -11.9034 C   0  0  0  0  0  0  0  0  0  0  0  0
   24.7868  -19.2077  -11.9681 O   0  0  0  0  0  0  0  0  0  0  0  0
   20.8183  -22.1916   -9.7812 C   0  0  0  0  0  0  0  0  0  0  0  0
   20.1987  -22.9638   -8.8157 C   0  0  0  0  0  0  0  0  0  0  0  0
   24.7107  -21.2156  -13.0664 N   0  0  0  0  0  0  0  0  0  0  0  0
   24.4203  -22.6192  -13.2739 C   0  0  0  0  0  0  0  0  0  0  0  0
   25.5414  -23.0739  -14.1781 C   0  0  0  0  0  0  0  0  0  0  0  0
   26.3210  -21.8358  -14.5635 C   0  0  0  0  0  0  0  0  0  0  0  0
   25.3004  -20.7437  -14.2953 C   0  0  1  0  0  0  0  0  0  0  0  0
   24.3151  -20.7496  -15.4265 C   0  0  0  0  0  0  0  0  0  0  0  0
   23.2347  -21.3788  -15.4120 O   0  0  0  0  0  0  0  0  0  0  0  0
   24.6654  -19.9770  -16.5761 N   0  0  0  0  0  0  0  0  0  0  0  0
   24.5220  -18.5380  -16.5292 C   0  0  0  0  0  0  0  0  0  0  0  0
   23.1310  -18.1363  -16.8329 C   0  0  0  0  0  0  0  0  0  0  0  0
   22.7732  -17.9090  -18.1476 O   0  0  0  0  0  0  0  0  0  0  0  0
   22.2895  -18.0035  -15.9175 O   0  0  0  0  0  0  0  0  0  0  0  0
  2  1  1  0
  3  2  2  0
  4  3  1  0
  5 11  1  0
  5  4  2  0
  6  5  1  0
  7  6  1  0
  7  9  1  0
  7  8  1  1
  9 13  1  0
 10  9  2  0
 11 12  2  0
 12  2  1  0
 13 17  1  0
 13 14  1  0
 14 15  1  0
 16 15  1  0
 17 16  1  0
 18 19  2  0
 17 18  1  6
 20 18  1  0
 21 20  1  0
 22 21  1  0
 22 23  1  0
 24 22  2  0
M  END
$$$$
