YPG.pdb
     RDKit          3D

 24 25  0  0  1  0  0  0  0  0999 V2000
   20.8180  -14.3071  -19.8216 O   0  0  0  0  0  0  0  0  0  0  0  0
   21.3064  -15.2951  -18.9968 C   0  0  0  0  0  0  0  0  0  0  0  0
   20.7522  -16.5540  -19.0178 C   0  0  0  0  0  0  0  0  0  0  0  0
   21.2410  -17.5649  -18.1837 C   0  0  0  0  0  0  0  0  0  0  0  0
   22.2787  -17.2956  -17.3418 C   0  0  0  0  0  0  0  0  0  0  0  0
   22.7974  -18.3650  -16.4580 C   0  0  0  0  0  0  0  0  0  0  0  0
   24.1164  -18.9059  -17.0400 C   0  0  2  0  0  0  0  0  0  0  0  0
   23.7566  -19.6869  -18.2238 N   0  0  0  0  0  0  0  0  0  0  0  0
   24.7851  -19.7753  -16.0664 C   0  0  0  0  0  0  0  0  0  0  0  0
   24.5656  -21.0364  -16.1476 O   0  0  0  0  0  0  0  0  0  0  0  0
   22.8383  -16.0257  -17.3201 C   0  0  0  0  0  0  0  0  0  0  0  0
   22.3495  -15.0315  -18.1478 C   0  0  0  0  0  0  0  0  0  0  0  0
   25.6556  -19.3548  -15.0396 N   0  0  0  0  0  0  0  0  0  0  0  0
   26.1344  -18.0128  -14.7807 C   0  0  0  0  0  0  0  0  0  0  0  0
   27.5344  -18.2396  -14.2614 C   0  0  0  0  0  0  0  0  0  0  0  0
   27.7048  -19.7346  -14.1038 C   0  0  0  0  0  0  0  0  0  0  0  0
   26.2593  -20.1952  -14.0345 C   0  0  1  0  0  0  0  0  0  0  0  0
   25.7441  -19.8821  -12.6609 C   0  0  0  0  0  0  0  0  0  0  0  0
   25.3642  -18.7480  -12.2962 O   0  0  0  0  0  0  0  0  0  0  0  0
   25.6981  -20.9714  -11.7377 N   0  0  0  0  0  0  0  0  0  0  0  0
   24.7691  -22.0557  -11.9720 C   0  0  0  0  0  0  0  0  0  0  0  0
   23.3774  -21.6216  -11.7208 C   0  0  0  0  0  0  0  0  0  0  0  0
   22.9398  -20.4312  -12.2683 O   0  0  0  0  0  0  0  0  0  0  0  0
   22.6063  -22.3177  -11.0248 O   0  0  0  0  0  0  0  0  0  0  0  0
  2  1  1  0
  3  2  2  0
  4  3  1  0
  5 11  1  0
  5  4  2  0
  6  5  1  0
  7  6  1  0
  7  9  1  0
  7  8  1  6
  9 13  1  0
 10  9  2  0
 11 12  2  0
 12  2  1  0
 13 17  1  0
 13 14  1  0
 14 15  1  0
 16 15  1  0
 17 16  1  0
 18 19  2  0
 17 18  1  1
 20 18  1  0
 21 20  1  0
 22 21  1  0
 22 23  1  0
 24 22  2  0
M  END
$$$$
