YPG.pdb
     RDKit          3D

 24 25  0  0  1  0  0  0  0  0999 V2000
   17.9174  -20.4251  -14.1152 O   0  0  0  0  0  0  0  0  0  0  0  0
   19.2719  -20.6130  -13.9573 C   0  0  0  0  0  0  0  0  0  0  0  0
   19.7584  -21.8217  -13.5159 C   0  0  0  0  0  0  0  0  0  0  0  0
   21.1329  -22.0230  -13.3521 C   0  0  0  0  0  0  0  0  0  0  0  0
   21.9971  -21.0073  -13.6342 C   0  0  0  0  0  0  0  0  0  0  0  0
   23.4527  -21.2189  -13.4612 C   0  0  0  0  0  0  0  0  0  0  0  0
   24.1162  -21.3239  -14.8468 C   0  0  2  0  0  0  0  0  0  0  0  0
   23.6917  -22.6046  -15.4127 N   0  0  0  0  0  0  0  0  0  0  0  0
   25.5768  -21.3083  -14.7157 C   0  0  0  0  0  0  0  0  0  0  0  0
   26.1802  -22.4390  -14.6642 O   0  0  0  0  0  0  0  0  0  0  0  0
   21.5070  -19.7875  -14.0796 C   0  0  0  0  0  0  0  0  0  0  0  0
   20.1467  -19.5962  -14.2390 C   0  0  0  0  0  0  0  0  0  0  0  0
   26.3906  -20.1590  -14.6409 N   0  0  0  0  0  0  0  0  0  0  0  0
   25.9781  -18.7750  -14.7491 C   0  0  0  0  0  0  0  0  0  0  0  0
   27.1496  -18.1183  -15.4398 C   0  0  0  0  0  0  0  0  0  0  0  0
   28.2410  -19.1617  -15.5358 C   0  0  0  0  0  0  0  0  0  0  0  0
   27.8201  -20.1359  -14.4494 C   0  0  1  0  0  0  0  0  0  0  0  0
   28.1974  -19.5377  -13.1265 C   0  0  0  0  0  0  0  0  0  0  0  0
   27.4616  -18.7698  -12.4688 O   0  0  0  0  0  0  0  0  0  0  0  0
   29.4847  -19.8890  -12.6160 N   0  0  0  0  0  0  0  0  0  0  0  0
   29.6336  -21.1145  -11.8612 C   0  0  0  0  0  0  0  0  0  0  0  0
   29.0057  -20.9921  -10.5274 C   0  0  0  0  0  0  0  0  0  0  0  0
   28.1300  -19.9495  -10.2943 O   0  0  0  0  0  0  0  0  0  0  0  0
   29.2607  -21.8167   -9.6226 O   0  0  0  0  0  0  0  0  0  0  0  0
  2  1  1  0
  3  2  2  0
  4  3  1  0
  5 11  1  0
  5  4  2  0
  6  5  1  0
  7  6  1  0
  7  9  1  0
  7  8  1  1
  9 13  1  0
 10  9  2  0
 11 12  2  0
 12  2  1  0
 13 17  1  0
 13 14  1  0
 14 15  1  0
 16 15  1  0
 17 16  1  0
 18 19  2  0
 17 18  1  1
 20 18  1  0
 21 20  1  0
 22 21  1  0
 22 23  1  0
 24 22  2  0
M  END
$$$$
