YPG.pdb
     RDKit          3D

 24 25  0  0  1  0  0  0  0  0999 V2000
   28.2341  -19.1217   -5.7803 O   0  0  0  0  0  0  0  0  0  0  0  0
   27.7391  -19.6920   -6.9312 C   0  0  0  0  0  0  0  0  0  0  0  0
   26.3890  -19.6657   -7.1940 C   0  0  0  0  0  0  0  0  0  0  0  0
   25.8759  -20.2423   -8.3605 C   0  0  0  0  0  0  0  0  0  0  0  0
   26.7266  -20.8362   -9.2446 C   0  0  0  0  0  0  0  0  0  0  0  0
   26.1848  -21.4472  -10.4802 C   0  0  0  0  0  0  0  0  0  0  0  0
   25.4813  -20.3609  -11.3145 C   0  0  2  0  0  0  0  0  0  0  0  0
   24.0703  -20.3920  -10.9286 N   0  0  0  0  0  0  0  0  0  0  0  0
   25.6026  -20.6581  -12.7455 C   0  0  0  0  0  0  0  0  0  0  0  0
   24.5971  -21.2035  -13.3258 O   0  0  0  0  0  0  0  0  0  0  0  0
   28.0889  -20.8631   -8.9801 C   0  0  0  0  0  0  0  0  0  0  0  0
   28.5886  -20.2908   -7.8246 C   0  0  0  0  0  0  0  0  0  0  0  0
   26.7288  -20.3990  -13.5539 N   0  0  0  0  0  0  0  0  0  0  0  0
   28.0444  -19.9708  -13.1261 C   0  0  0  0  0  0  0  0  0  0  0  0
   28.4999  -19.0753  -14.2538 C   0  0  0  0  0  0  0  0  0  0  0  0
   27.4585  -19.1843  -15.3459 C   0  0  0  0  0  0  0  0  0  0  0  0
   26.7896  -20.5009  -14.9915 C   0  0  1  0  0  0  0  0  0  0  0  0
   27.6971  -21.6098  -15.4354 C   0  0  0  0  0  0  0  0  0  0  0  0
   28.6616  -22.0376  -14.7645 O   0  0  0  0  0  0  0  0  0  0  0  0
   27.4121  -22.1904  -16.7094 N   0  0  0  0  0  0  0  0  0  0  0  0
   26.1540  -22.8776  -16.9056 C   0  0  0  0  0  0  0  0  0  0  0  0
   26.1685  -24.2026  -16.2480 C   0  0  0  0  0  0  0  0  0  0  0  0
   26.9429  -25.2095  -16.7909 O   0  0  0  0  0  0  0  0  0  0  0  0
   25.4922  -24.4124  -15.2173 O   0  0  0  0  0  0  0  0  0  0  0  0
  2  1  1  0
  3  2  2  0
  4  3  1  0
  5 11  1  0
  5  4  2  0
  6  5  1  0
  7  6  1  0
  7  9  1  0
  7  8  1  1
  9 13  1  0
 10  9  2  0
 11 12  2  0
 12  2  1  0
 13 17  1  0
 13 14  1  0
 14 15  1  0
 16 15  1  0
 17 16  1  0
 18 19  2  0
 17 18  1  1
 20 18  1  0
 21 20  1  0
 22 21  1  0
 22 23  1  0
 24 22  2  0
M  END
$$$$
