YPG.pdb
     RDKit          3D

 24 25  0  0  1  0  0  0  0  0999 V2000
   18.9078  -15.6343  -17.3673 O   0  0  0  0  0  0  0  0  0  0  0  0
   19.7819  -16.5157  -16.7723 C   0  0  0  0  0  0  0  0  0  0  0  0
   20.9835  -16.0707  -16.2719 C   0  0  0  0  0  0  0  0  0  0  0  0
   21.8787  -16.9581  -15.6654 C   0  0  0  0  0  0  0  0  0  0  0  0
   21.5530  -18.2783  -15.5712 C   0  0  0  0  0  0  0  0  0  0  0  0
   22.4998  -19.2192  -14.9294 C   0  0  0  0  0  0  0  0  0  0  0  0
   23.5956  -19.6020  -15.9411 C   0  0  2  0  0  0  0  0  0  0  0  0
   23.0049  -20.6003  -16.8328 N   0  0  0  0  0  0  0  0  0  0  0  0
   24.7479  -20.1875  -15.2481 C   0  0  0  0  0  0  0  0  0  0  0  0
   24.8185  -21.4669  -15.1903 O   0  0  0  0  0  0  0  0  0  0  0  0
   20.3408  -18.7281  -16.0759 C   0  0  0  0  0  0  0  0  0  0  0  0
   19.4610  -17.8446  -16.6741 C   0  0  0  0  0  0  0  0  0  0  0  0
   25.7971  -19.4729  -14.6336 N   0  0  0  0  0  0  0  0  0  0  0  0
   25.9857  -18.0375  -14.5958 C   0  0  0  0  0  0  0  0  0  0  0  0
   27.4876  -17.8852  -14.6413 C   0  0  0  0  0  0  0  0  0  0  0  0
   28.0711  -19.2771  -14.5368 C   0  0  0  0  0  0  0  0  0  0  0  0
   26.9135  -20.0415  -13.9188 C   0  0  1  0  0  0  0  0  0  0  0  0
   26.8711  -19.7058  -12.4573 C   0  0  0  0  0  0  0  0  0  0  0  0
   26.3443  -18.6724  -11.9903 O   0  0  0  0  0  0  0  0  0  0  0  0
   27.4799  -20.6480  -11.5726 N   0  0  0  0  0  0  0  0  0  0  0  0
   26.6501  -21.6297  -10.9083 C   0  0  0  0  0  0  0  0  0  0  0  0
   25.5888  -20.9728  -10.1144 C   0  0  0  0  0  0  0  0  0  0  0  0
   24.2784  -21.0706  -10.5404 O   0  0  0  0  0  0  0  0  0  0  0  0
   25.8687  -20.3383   -9.0738 O   0  0  0  0  0  0  0  0  0  0  0  0
  2  1  1  0
  3  2  2  0
  4  3  1  0
  5 11  1  0
  5  4  2  0
  6  5  1  0
  7  6  1  0
  7  9  1  0
  7  8  1  6
  9 13  1  0
 10  9  2  0
 11 12  2  0
 12  2  1  0
 13 17  1  0
 13 14  1  0
 14 15  1  0
 16 15  1  0
 17 16  1  0
 18 19  2  0
 17 18  1  1
 20 18  1  0
 21 20  1  0
 22 21  1  0
 22 23  1  0
 24 22  2  0
M  END
$$$$
