YYR.pdb
     RDKit          3D

 36 37  0  0  1  0  0  0  0  0999 V2000
    6.8477  -14.0660   15.1179 O   0  0  0  0  0  0  0  0  0  0  0  0
    7.4877  -14.0518   16.3530 C   0  0  0  0  0  0  0  0  0  0  0  0
    8.6212  -14.8151   16.5889 C   0  0  0  0  0  0  0  0  0  0  0  0
    9.2373  -14.7915   17.8013 C   0  0  0  0  0  0  0  0  0  0  0  0
    8.7137  -13.9861   18.8105 C   0  0  0  0  0  0  0  0  0  0  0  0
    9.3259  -13.9281   20.1359 C   0  0  0  0  0  0  0  0  0  0  0  0
    9.3370  -15.2235   20.8991 C   0  0  2  0  0  0  0  0  0  0  0  0
    7.9622  -15.6897   21.0258 N   0  0  0  0  0  0  0  0  0  0  0  0
    9.9347  -15.0148   22.2206 C   0  0  0  0  0  0  0  0  0  0  0  0
   11.1556  -14.7304   22.3105 O   0  0  0  0  0  0  0  0  0  0  0  0
    7.5753  -13.2202   18.5715 C   0  0  0  0  0  0  0  0  0  0  0  0
    6.9604  -13.2511   17.3438 C   0  0  0  0  0  0  0  0  0  0  0  0
   10.4497  -15.2353   31.0728 O   0  0  0  0  0  0  0  0  0  0  0  0
   10.0484  -15.0816   29.7373 C   0  0  0  0  0  0  0  0  0  0  0  0
    9.4253  -16.1551   29.1265 C   0  0  0  0  0  0  0  0  0  0  0  0
    9.0513  -15.9499   27.8139 C   0  0  0  0  0  0  0  0  0  0  0  0
    9.2630  -14.7809   27.1265 C   0  0  0  0  0  0  0  0  0  0  0  0
    8.8192  -14.6875   25.7364 C   0  0  0  0  0  0  0  0  0  0  0  0
    9.8584  -15.1054   24.7337 C   0  0  2  0  0  0  0  0  0  0  0  0
    9.2016  -15.1160   23.4249 N   0  0  0  0  0  0  0  0  0  0  0  0
   10.4357  -16.4362   24.9655 C   0  0  0  0  0  0  0  0  0  0  0  0
    9.7152  -17.4656   24.8309 O   0  0  0  0  0  0  0  0  0  0  0  0
    9.8849  -13.7389   27.7681 C   0  0  0  0  0  0  0  0  0  0  0  0
   10.2748  -13.8988   29.0775 C   0  0  0  0  0  0  0  0  0  0  0  0
   15.6310  -16.2439   19.8751 N   0  0  0  0  0  0  0  0  0  0  0  0
   15.4731  -15.7698   21.2331 C   0  0  0  0  0  0  0  0  0  0  0  0
   16.2305  -14.8266   21.6268 N   0  0  0  0  0  0  0  0  0  0  0  0
   14.5096  -16.3430   22.0791 N   0  0  0  0  0  0  0  0  0  0  0  0
   13.9996  -17.6931   21.9429 C   0  0  0  0  0  0  0  0  0  0  0  0
   12.9992  -17.9714   23.0024 C   0  0  0  0  0  0  0  0  0  0  0  0
   13.4435  -18.0820   24.3994 C   0  0  0  0  0  0  0  0  0  0  0  0
   12.4492  -17.9295   25.4596 C   0  0  2  0  0  0  0  0  0  0  0  0
   11.7747  -16.6144   25.3355 N   0  0  0  0  0  0  0  0  0  0  0  0
   12.7103  -18.1854   26.8327 C   0  0  0  0  0  0  0  0  0  0  0  0
   12.7020  -17.3103   27.7373 O   0  0  0  0  0  0  0  0  0  0  0  0
   13.0066  -19.4795   27.2844 O   0  0  0  0  0  0  0  0  0  0  0  0
  2  1  1  0
  2  3  2  0
  4  3  1  0
  5  4  2  0
  6  5  1  0
  7  6  1  0
  7  8  1  1
  9 20  1  0
  9  7  1  0
 10  9  2  0
 11 12  2  0
 11  5  1  0
 12  2  1  0
 13 14  1  0
 14 15  2  0
 15 16  1  0
 17 16  2  0
 17 18  1  0
 19 18  1  1
 19 20  1  0
 21 19  1  0
 21 33  1  0
 22 21  2  0
 23 17  1  0
 24 14  1  0
 24 23  2  0
 26 27  2  0
 26 25  1  0
 28 26  1  0
 29 28  1  0
 30 29  1  0
 31 30  1  0
 32 33  1  0
 32 31  1  6
 34 32  1  0
 35 34  2  0
 36 34  1  0
M  END
$$$$
