YYR.pdb
     RDKit          3D

 36 37  0  0  1  0  0  0  0  0999 V2000
    8.1208  -14.1781   15.3759 O   0  0  0  0  0  0  0  0  0  0  0  0
    8.3949  -14.1989   16.7396 C   0  0  0  0  0  0  0  0  0  0  0  0
    9.5066  -14.8570   17.2437 C   0  0  0  0  0  0  0  0  0  0  0  0
    9.7630  -14.8690   18.5795 C   0  0  0  0  0  0  0  0  0  0  0  0
    8.8906  -14.2081   19.4416 C   0  0  0  0  0  0  0  0  0  0  0  0
    9.1083  -14.1958   20.8863 C   0  0  0  0  0  0  0  0  0  0  0  0
    9.6542  -15.4704   21.4679 C   0  0  2  0  0  0  0  0  0  0  0  0
    8.9679  -16.5901   20.8364 N   0  0  0  0  0  0  0  0  0  0  0  0
    9.4400  -15.4852   22.9173 C   0  0  0  0  0  0  0  0  0  0  0  0
    9.7165  -14.4635   23.5950 O   0  0  0  0  0  0  0  0  0  0  0  0
    7.7747  -13.5477   18.9333 C   0  0  0  0  0  0  0  0  0  0  0  0
    7.5245  -13.5414   17.5829 C   0  0  0  0  0  0  0  0  0  0  0  0
    3.7090  -17.6710   20.6849 O   0  0  0  0  0  0  0  0  0  0  0  0
    4.5452  -17.1490   21.6832 C   0  0  0  0  0  0  0  0  0  0  0  0
    4.8285  -17.9563   22.7702 C   0  0  0  0  0  0  0  0  0  0  0  0
    5.6554  -17.3940   23.7216 C   0  0  0  0  0  0  0  0  0  0  0  0
    6.1806  -16.1289   23.6346 C   0  0  0  0  0  0  0  0  0  0  0  0
    7.0456  -15.6468   24.7104 C   0  0  0  0  0  0  0  0  0  0  0  0
    8.2819  -16.4763   24.9189 C   0  0  2  0  0  0  0  0  0  0  0  0
    8.9287  -16.6054   23.6114 N   0  0  0  0  0  0  0  0  0  0  0  0
    8.0346  -17.8269   25.4411 C   0  0  0  0  0  0  0  0  0  0  0  0
    7.2466  -18.6025   24.8293 O   0  0  0  0  0  0  0  0  0  0  0  0
    5.8753  -15.3591   22.5400 C   0  0  0  0  0  0  0  0  0  0  0  0
    5.0547  -15.8793   21.5663 C   0  0  0  0  0  0  0  0  0  0  0  0
   13.9351  -22.0609   25.9401 N   0  0  0  0  0  0  0  0  0  0  0  0
   14.4578  -20.8589   25.3270 C   0  0  0  0  0  0  0  0  0  0  0  0
   15.6319  -20.4887   25.6473 N   0  0  0  0  0  0  0  0  0  0  0  0
   13.6813  -20.1335   24.4085 N   0  0  0  0  0  0  0  0  0  0  0  0
   12.3112  -20.4548   24.0610 C   0  0  0  0  0  0  0  0  0  0  0  0
   11.4611  -20.4531   25.2768 C   0  0  0  0  0  0  0  0  0  0  0  0
   10.4259  -19.4203   25.4288 C   0  0  0  0  0  0  0  0  0  0  0  0
    9.6349  -19.4041   26.6576 C   0  0  2  0  0  0  0  0  0  0  0  0
    8.6470  -18.2988   26.6089 N   0  0  0  0  0  0  0  0  0  0  0  0
   10.1966  -19.4626   27.9615 C   0  0  0  0  0  0  0  0  0  0  0  0
   10.3873  -20.5238   28.6109 O   0  0  0  0  0  0  0  0  0  0  0  0
   10.5884  -18.2962   28.6341 O   0  0  0  0  0  0  0  0  0  0  0  0
  2  1  1  0
  2  3  2  0
  4  3  1  0
  5  4  2  0
  6  5  1  0
  7  6  1  0
  7  8  1  6
  9 20  1  0
  9  7  1  0
 10  9  2  0
 11 12  2  0
 11  5  1  0
 12  2  1  0
 13 14  1  0
 14 15  2  0
 15 16  1  0
 17 16  2  0
 17 18  1  0
 19 18  1  6
 19 20  1  0
 21 19  1  0
 21 33  1  0
 22 21  2  0
 23 17  1  0
 24 14  1  0
 24 23  2  0
 26 27  2  0
 26 25  1  0
 28 26  1  0
 29 28  1  0
 30 29  1  0
 31 30  1  0
 32 33  1  0
 32 31  1  6
 34 32  1  0
 35 34  2  0
 36 34  1  0
M  END
$$$$
