YYR.pdb
     RDKit          3D

 36 37  0  0  1  0  0  0  0  0999 V2000
    0.1378  -20.3127   20.2600 O   0  0  0  0  0  0  0  0  0  0  0  0
    1.3202  -19.7105   20.6778 C   0  0  0  0  0  0  0  0  0  0  0  0
    1.9615  -18.7590   19.8990 C   0  0  0  0  0  0  0  0  0  0  0  0
    3.1171  -18.1778   20.3197 C   0  0  0  0  0  0  0  0  0  0  0  0
    3.6528  -18.5512   21.5504 C   0  0  0  0  0  0  0  0  0  0  0  0
    4.8967  -17.9696   22.0498 C   0  0  0  0  0  0  0  0  0  0  0  0
    5.8516  -17.4840   20.9947 C   0  0  2  0  0  0  0  0  0  0  0  0
    6.3135  -18.6370   20.2326 N   0  0  0  0  0  0  0  0  0  0  0  0
    6.9811  -16.7975   21.6269 C   0  0  0  0  0  0  0  0  0  0  0  0
    8.0629  -17.4137   21.7993 O   0  0  0  0  0  0  0  0  0  0  0  0
    3.0072  -19.5070   22.3311 C   0  0  0  0  0  0  0  0  0  0  0  0
    1.8409  -20.0881   21.8973 C   0  0  0  0  0  0  0  0  0  0  0  0
    7.0312  -11.8808   28.2152 O   0  0  0  0  0  0  0  0  0  0  0  0
    7.1955  -12.2306   26.8665 C   0  0  0  0  0  0  0  0  0  0  0  0
    7.6086  -13.5202   26.5835 C   0  0  0  0  0  0  0  0  0  0  0  0
    7.7538  -13.8109   25.2420 C   0  0  0  0  0  0  0  0  0  0  0  0
    7.5158  -12.9149   24.2298 C   0  0  0  0  0  0  0  0  0  0  0  0
    7.7062  -13.3452   22.8453 C   0  0  0  0  0  0  0  0  0  0  0  0
    8.0661  -14.7976   22.7007 C   0  0  2  0  0  0  0  0  0  0  0  0
    6.9234  -15.4539   22.0621 N   0  0  0  0  0  0  0  0  0  0  0  0
    8.3422  -15.4910   23.9660 C   0  0  0  0  0  0  0  0  0  0  0  0
    7.3975  -16.0402   24.6005 O   0  0  0  0  0  0  0  0  0  0  0  0
    7.1074  -11.6448   24.5522 C   0  0  0  0  0  0  0  0  0  0  0  0
    6.9491  -11.3109   25.8772 C   0  0  0  0  0  0  0  0  0  0  0  0
   12.9355  -21.4078   23.0781 N   0  0  0  0  0  0  0  0  0  0  0  0
   12.1219  -22.1049   24.0505 C   0  0  0  0  0  0  0  0  0  0  0  0
   12.5951  -23.1631   24.5745 N   0  0  0  0  0  0  0  0  0  0  0  0
   10.8508  -21.6169   24.3952 N   0  0  0  0  0  0  0  0  0  0  0  0
   10.2393  -20.4399   23.8103 C   0  0  0  0  0  0  0  0  0  0  0  0
   10.4798  -19.2565   24.6722 C   0  0  0  0  0  0  0  0  0  0  0  0
    9.9625  -17.9455   24.2538 C   0  0  0  0  0  0  0  0  0  0  0  0
   10.2208  -16.7903   25.1110 C   0  0  2  0  0  0  0  0  0  0  0  0
    9.6315  -15.5704   24.5073 N   0  0  0  0  0  0  0  0  0  0  0  0
   11.4987  -16.4695   25.6433 C   0  0  0  0  0  0  0  0  0  0  0  0
   12.3439  -15.7289   25.0766 O   0  0  0  0  0  0  0  0  0  0  0  0
   11.9156  -16.9784   26.8816 O   0  0  0  0  0  0  0  0  0  0  0  0
  2  1  1  0
  2  3  2  0
  4  3  1  0
  5  4  2  0
  6  5  1  0
  7  6  1  0
  7  8  1  1
  9 20  1  0
  9  7  1  0
 10  9  2  0
 11 12  2  0
 11  5  1  0
 12  2  1  0
 13 14  1  0
 14 15  2  0
 15 16  1  0
 17 16  2  0
 17 18  1  0
 19 18  1  1
 19 20  1  0
 21 19  1  0
 21 33  1  0
 22 21  2  0
 23 17  1  0
 24 14  1  0
 24 23  2  0
 26 27  2  0
 26 25  1  0
 28 26  1  0
 29 28  1  0
 30 29  1  0
 31 30  1  0
 32 33  1  0
 32 31  1  6
 34 32  1  0
 35 34  2  0
 36 34  1  0
M  END
$$$$
