YYR.pdb
     RDKit          3D

 36 37  0  0  1  0  0  0  0  0999 V2000
    7.4031  -21.4897   15.6968 O   0  0  0  0  0  0  0  0  0  0  0  0
    7.6770  -20.6960   16.8060 C   0  0  0  0  0  0  0  0  0  0  0  0
    6.6680  -20.0310   17.4862 C   0  0  0  0  0  0  0  0  0  0  0  0
    6.9498  -19.2584   18.5696 C   0  0  0  0  0  0  0  0  0  0  0  0
    8.2725  -19.1418   18.9915 C   0  0  0  0  0  0  0  0  0  0  0  0
    8.6373  -18.3177   20.1415 C   0  0  0  0  0  0  0  0  0  0  0  0
    8.9064  -16.8697   19.8388 C   0  0  2  0  0  0  0  0  0  0  0  0
   10.1161  -16.7903   19.0301 N   0  0  0  0  0  0  0  0  0  0  0  0
    9.0724  -16.1246   21.0896 C   0  0  0  0  0  0  0  0  0  0  0  0
   10.1910  -16.1170   21.6625 O   0  0  0  0  0  0  0  0  0  0  0  0
    9.2844  -19.8104   18.3069 C   0  0  0  0  0  0  0  0  0  0  0  0
    8.9896  -20.5881   17.2140 C   0  0  0  0  0  0  0  0  0  0  0  0
    6.7507  -11.5033   28.2781 O   0  0  0  0  0  0  0  0  0  0  0  0
    6.7959  -12.1090   27.0134 C   0  0  0  0  0  0  0  0  0  0  0  0
    7.6002  -11.5259   26.0507 C   0  0  0  0  0  0  0  0  0  0  0  0
    7.6080  -12.1621   24.8259 C   0  0  0  0  0  0  0  0  0  0  0  0
    6.8850  -13.2937   24.5412 C   0  0  0  0  0  0  0  0  0  0  0  0
    6.9782  -13.8742   23.2024 C   0  0  0  0  0  0  0  0  0  0  0  0
    8.2022  -14.7199   22.9868 C   0  0  2  0  0  0  0  0  0  0  0  0
    8.0254  -15.3979   21.7009 N   0  0  0  0  0  0  0  0  0  0  0  0
    8.4303  -15.7439   24.0152 C   0  0  0  0  0  0  0  0  0  0  0  0
    7.7962  -16.8358   23.9659 O   0  0  0  0  0  0  0  0  0  0  0  0
    6.0986  -13.8415   25.5238 C   0  0  0  0  0  0  0  0  0  0  0  0
    6.0606  -13.2407   26.7605 C   0  0  0  0  0  0  0  0  0  0  0  0
   12.7100  -22.7884   26.3844 N   0  0  0  0  0  0  0  0  0  0  0  0
   12.3928  -21.9806   25.2265 C   0  0  0  0  0  0  0  0  0  0  0  0
   11.7181  -22.5183   24.2916 N   0  0  0  0  0  0  0  0  0  0  0  0
   12.8235  -20.6459   25.1507 N   0  0  0  0  0  0  0  0  0  0  0  0
   12.1286  -19.6014   24.4245 C   0  0  0  0  0  0  0  0  0  0  0  0
   11.4526  -18.6820   25.3725 C   0  0  0  0  0  0  0  0  0  0  0  0
   10.7346  -17.5105   24.8494 C   0  0  0  0  0  0  0  0  0  0  0  0
   10.0238  -16.6516   25.7943 C   0  0  2  0  0  0  0  0  0  0  0  0
    9.3374  -15.5570   25.0657 N   0  0  0  0  0  0  0  0  0  0  0  0
   10.6074  -16.1225   26.9769 C   0  0  0  0  0  0  0  0  0  0  0  0
   11.1002  -16.8171   27.9036 O   0  0  0  0  0  0  0  0  0  0  0  0
   10.6729  -14.7389   27.1955 O   0  0  0  0  0  0  0  0  0  0  0  0
  2  1  1  0
  2  3  2  0
  4  3  1  0
  5  4  2  0
  6  5  1  0
  7  6  1  0
  7  8  1  6
  9 20  1  0
  9  7  1  0
 10  9  2  0
 11 12  2  0
 11  5  1  0
 12  2  1  0
 13 14  1  0
 14 15  2  0
 15 16  1  0
 17 16  2  0
 17 18  1  0
 19 18  1  1
 19 20  1  0
 21 19  1  0
 21 33  1  0
 22 21  2  0
 23 17  1  0
 24 14  1  0
 24 23  2  0
 26 27  2  0
 26 25  1  0
 28 26  1  0
 29 28  1  0
 30 29  1  0
 31 30  1  0
 32 33  1  0
 32 31  1  6
 34 32  1  0
 35 34  2  0
 36 34  1  0
M  END
$$$$
