YYR.pdb
     RDKit          3D

 36 37  0  0  1  0  0  0  0  0999 V2000
    5.1470  -19.7929   14.8909 O   0  0  0  0  0  0  0  0  0  0  0  0
    5.7927  -19.2195   15.9816 C   0  0  0  0  0  0  0  0  0  0  0  0
    6.4744  -18.0172   15.8683 C   0  0  0  0  0  0  0  0  0  0  0  0
    7.1011  -17.4675   16.9431 C   0  0  0  0  0  0  0  0  0  0  0  0
    7.0501  -18.1301   18.1677 C   0  0  0  0  0  0  0  0  0  0  0  0
    7.7131  -17.5939   19.3541 C   0  0  0  0  0  0  0  0  0  0  0  0
    8.3228  -16.2291   19.1917 C   0  0  2  0  0  0  0  0  0  0  0  0
    9.5125  -16.3575   18.3600 N   0  0  0  0  0  0  0  0  0  0  0  0
    8.6689  -15.6815   20.5059 C   0  0  0  0  0  0  0  0  0  0  0  0
    9.7879  -15.9473   21.0128 O   0  0  0  0  0  0  0  0  0  0  0  0
    6.3649  -19.3375   18.2793 C   0  0  0  0  0  0  0  0  0  0  0  0
    5.7354  -19.8844   17.1881 C   0  0  0  0  0  0  0  0  0  0  0  0
    7.4215  -11.8346   28.3810 O   0  0  0  0  0  0  0  0  0  0  0  0
    7.3107  -12.2580   27.0481 C   0  0  0  0  0  0  0  0  0  0  0  0
    8.0545  -11.5836   26.0964 C   0  0  0  0  0  0  0  0  0  0  0  0
    7.9084  -12.0409   24.8024 C   0  0  0  0  0  0  0  0  0  0  0  0
    7.0950  -13.0862   24.4422 C   0  0  0  0  0  0  0  0  0  0  0  0
    7.0265  -13.4764   23.0347 C   0  0  0  0  0  0  0  0  0  0  0  0
    8.1372  -14.3912   22.5993 C   0  0  2  0  0  0  0  0  0  0  0  0
    7.7992  -14.8534   21.2515 N   0  0  0  0  0  0  0  0  0  0  0  0
    8.3304  -15.5719   23.4517 C   0  0  0  0  0  0  0  0  0  0  0  0
    7.5768  -16.5767   23.3133 O   0  0  0  0  0  0  0  0  0  0  0  0
    6.3731  -13.7294   25.4163 C   0  0  0  0  0  0  0  0  0  0  0  0
    6.4880  -13.3074   26.7204 C   0  0  0  0  0  0  0  0  0  0  0  0
   14.6945  -20.5371   22.0597 N   0  0  0  0  0  0  0  0  0  0  0  0
   14.7536  -20.2247   23.4713 C   0  0  0  0  0  0  0  0  0  0  0  0
   15.8106  -20.5362   24.1069 N   0  0  0  0  0  0  0  0  0  0  0  0
   13.6696  -19.5971   24.1069 N   0  0  0  0  0  0  0  0  0  0  0  0
   12.3479  -19.4607   23.5274 C   0  0  0  0  0  0  0  0  0  0  0  0
   11.4397  -18.7763   24.4801 C   0  0  0  0  0  0  0  0  0  0  0  0
   10.7762  -17.5297   24.0713 C   0  0  0  0  0  0  0  0  0  0  0  0
    9.8669  -16.8838   25.0157 C   0  0  2  0  0  0  0  0  0  0  0  0
    9.3328  -15.6311   24.4280 N   0  0  0  0  0  0  0  0  0  0  0  0
   10.1775  -16.6551   26.3834 C   0  0  0  0  0  0  0  0  0  0  0  0
   10.3882  -17.5621   27.2301 O   0  0  0  0  0  0  0  0  0  0  0  0
   10.2715  -15.3535   26.8965 O   0  0  0  0  0  0  0  0  0  0  0  0
  2  1  1  0
  2  3  2  0
  4  3  1  0
  5  4  2  0
  6  5  1  0
  7  6  1  0
  7  8  1  6
  9 20  1  0
  9  7  1  0
 10  9  2  0
 11 12  2  0
 11  5  1  0
 12  2  1  0
 13 14  1  0
 14 15  2  0
 15 16  1  0
 17 16  2  0
 17 18  1  0
 19 18  1  1
 19 20  1  0
 21 19  1  0
 21 33  1  0
 22 21  2  0
 23 17  1  0
 24 14  1  0
 24 23  2  0
 26 27  2  0
 26 25  1  0
 28 26  1  0
 29 28  1  0
 30 29  1  0
 31 30  1  0
 32 33  1  0
 32 31  1  6
 34 32  1  0
 35 34  2  0
 36 34  1  0
M  END
$$$$
