YYR.pdb
     RDKit          3D

 36 37  0  0  1  0  0  0  0  0999 V2000
    7.2264  -13.9908   15.6948 O   0  0  0  0  0  0  0  0  0  0  0  0
    7.5861  -14.2803   17.0071 C   0  0  0  0  0  0  0  0  0  0  0  0
    8.3031  -13.3764   17.7765 C   0  0  0  0  0  0  0  0  0  0  0  0
    8.6479  -13.6722   19.0586 C   0  0  0  0  0  0  0  0  0  0  0  0
    8.2701  -14.9017   19.5941 C   0  0  0  0  0  0  0  0  0  0  0  0
    8.6213  -15.2794   20.9611 C   0  0  0  0  0  0  0  0  0  0  0  0
    9.3036  -14.2119   21.7709 C   0  0  2  0  0  0  0  0  0  0  0  0
   10.5855  -13.9145   21.1448 N   0  0  0  0  0  0  0  0  0  0  0  0
    9.4974  -14.6806   23.1455 C   0  0  0  0  0  0  0  0  0  0  0  0
   10.6535  -14.6942   23.6383 O   0  0  0  0  0  0  0  0  0  0  0  0
    7.5501  -15.8081   18.8197 C   0  0  0  0  0  0  0  0  0  0  0  0
    7.2068  -15.5000   17.5261 C   0  0  0  0  0  0  0  0  0  0  0  0
    6.0896   -9.7924   27.0163 O   0  0  0  0  0  0  0  0  0  0  0  0
    6.4105  -11.1390   26.7881 C   0  0  0  0  0  0  0  0  0  0  0  0
    5.5272  -11.8905   26.0339 C   0  0  0  0  0  0  0  0  0  0  0  0
    5.8913  -13.2076   25.8400 C   0  0  0  0  0  0  0  0  0  0  0  0
    7.0380  -13.7714   26.3413 C   0  0  0  0  0  0  0  0  0  0  0  0
    7.3120  -15.1810   26.0654 C   0  0  0  0  0  0  0  0  0  0  0  0
    8.6310  -15.4258   25.3869 C   0  0  2  0  0  0  0  0  0  0  0  0
    8.4368  -15.1265   23.9667 N   0  0  0  0  0  0  0  0  0  0  0  0
    9.1334  -16.8017   25.4988 C   0  0  0  0  0  0  0  0  0  0  0  0
    9.3001  -17.3187   26.6398 O   0  0  0  0  0  0  0  0  0  0  0  0
    7.8885  -12.9921   27.0851 C   0  0  0  0  0  0  0  0  0  0  0  0
    7.5657  -11.6730   27.3036 C   0  0  0  0  0  0  0  0  0  0  0  0
   10.4127  -25.5836   23.8929 N   0  0  0  0  0  0  0  0  0  0  0  0
    9.7207  -24.4302   23.3594 C   0  0  0  0  0  0  0  0  0  0  0  0
    8.5447  -24.5987   22.9044 N   0  0  0  0  0  0  0  0  0  0  0  0
   10.3408  -23.1700   23.3502 N   0  0  0  0  0  0  0  0  0  0  0  0
    9.7276  -21.9594   22.8406 C   0  0  0  0  0  0  0  0  0  0  0  0
   10.6908  -20.8328   22.9025 C   0  0  0  0  0  0  0  0  0  0  0  0
   10.1845  -19.4624   23.0667 C   0  0  0  0  0  0  0  0  0  0  0  0
   10.0566  -18.9260   24.4202 C   0  0  2  0  0  0  0  0  0  0  0  0
    9.4401  -17.5777   24.3740 N   0  0  0  0  0  0  0  0  0  0  0  0
   11.1122  -18.9174   25.3714 C   0  0  0  0  0  0  0  0  0  0  0  0
   12.0542  -18.0828   25.3866 O   0  0  0  0  0  0  0  0  0  0  0  0
   11.1742  -19.8763   26.3927 O   0  0  0  0  0  0  0  0  0  0  0  0
  2  1  1  0
  2  3  2  0
  4  3  1  0
  5  4  2  0
  6  5  1  0
  7  6  1  0
  7  8  1  6
  9 20  1  0
  9  7  1  0
 10  9  2  0
 11 12  2  0
 11  5  1  0
 12  2  1  0
 13 14  1  0
 14 15  2  0
 15 16  1  0
 17 16  2  0
 17 18  1  0
 19 18  1  1
 19 20  1  0
 21 19  1  0
 21 33  1  0
 22 21  2  0
 23 17  1  0
 24 14  1  0
 24 23  2  0
 26 27  2  0
 26 25  1  0
 28 26  1  0
 29 28  1  0
 30 29  1  0
 31 30  1  0
 32 33  1  0
 32 31  1  6
 34 32  1  0
 35 34  2  0
 36 34  1  0
M  END
$$$$
