HFR.pdb
     RDKit          3D

 33 34  0  0  1  0  0  0  0  0999 V2000
   27.4748  -23.1208  -17.6460 N   0  0  0  0  0  0  0  0  0  0  0  0
   27.3395  -21.7999  -17.0900 C   0  0  1  0  0  0  0  0  0  0  0  0
   26.5693  -20.9160  -18.0405 C   0  0  0  0  0  0  0  0  0  0  0  0
   27.4364  -20.6292  -19.2081 C   0  0  0  0  0  0  0  0  0  0  0  0
   27.3468  -21.1487  -20.4798 C   0  0  0  0  0  0  0  0  0  0  0  0
   28.3341  -20.6112  -21.2205 N   0  0  0  0  0  0  0  0  0  0  0  0
   29.0434  -19.7678  -20.4513 C   0  0  0  0  0  0  0  0  0  0  0  0
   28.4836  -19.7880  -19.2229 N   0  0  0  0  0  0  0  0  0  0  0  0
   26.7235  -21.8503  -15.7409 C   0  0  0  0  0  0  0  0  0  0  0  0
   25.6438  -22.4810  -15.5245 O   0  0  0  0  0  0  0  0  0  0  0  0
   27.2581  -21.2219  -14.6002 N   0  0  0  0  0  0  0  0  0  0  0  0
   26.6353  -21.1138  -13.3300 C   0  0  1  0  0  0  0  0  0  0  0  0
   27.4753  -20.8304  -12.1543 C   0  0  0  0  0  0  0  0  0  0  0  0
   26.6675  -20.6458  -10.9275 C   0  0  0  0  0  0  0  0  0  0  0  0
   26.2545  -21.7092  -10.1513 C   0  0  0  0  0  0  0  0  0  0  0  0
   25.5055  -21.5688   -9.0216 C   0  0  0  0  0  0  0  0  0  0  0  0
   25.1234  -20.3094   -8.6063 C   0  0  0  0  0  0  0  0  0  0  0  0
   25.5147  -19.2192   -9.3526 C   0  0  0  0  0  0  0  0  0  0  0  0
   26.2842  -19.3916  -10.5088 C   0  0  0  0  0  0  0  0  0  0  0  0
   25.4320  -20.2553  -13.4703 C   0  0  0  0  0  0  0  0  0  0  0  0
   25.4683  -19.1839  -14.1294 O   0  0  0  0  0  0  0  0  0  0  0  0
   23.2387  -17.7186  -19.4734 N   0  0  0  0  0  0  0  0  0  0  0  0
   22.4630  -16.8403  -18.6760 C   0  0  0  0  0  0  0  0  0  0  0  0
   22.0849  -15.6768  -19.0148 N   0  0  0  0  0  0  0  0  0  0  0  0
   22.0553  -17.2736  -17.3566 N   0  0  0  0  0  0  0  0  0  0  0  0
   22.5232  -18.6136  -16.9269 C   0  0  0  0  0  0  0  0  0  0  0  0
   22.1019  -18.8651  -15.5156 C   0  0  0  0  0  0  0  0  0  0  0  0
   23.0883  -19.4751  -14.6432 C   0  0  0  0  0  0  0  0  0  0  0  0
   22.9163  -19.8780  -13.2456 C   0  0  2  0  0  0  0  0  0  0  0  0
   24.2008  -20.6024  -12.8743 N   0  0  0  0  0  0  0  0  0  0  0  0
   21.8481  -20.7674  -12.8308 C   0  0  0  0  0  0  0  0  0  0  0  0
   22.0051  -22.1626  -12.9540 O   0  0  0  0  0  0  0  0  0  0  0  0
   20.7676  -20.3977  -12.3596 O   0  0  0  0  0  0  0  0  0  0  0  0
  2  1  1  6
  2  3  1  0
  4  3  1  0
  5  4  2  0
  6  5  1  0
  7  6  1  0
  7  8  2  0
  8  4  1  0
  9  2  1  0
 10  9  2  0
 11  9  1  0
 12 13  1  1
 12 11  1  0
 13 14  1  0
 14 15  2  0
 15 16  1  0
 17 16  2  0
 18 17  1  0
 19 18  2  0
 19 14  1  0
 20 12  1  0
 21 20  2  0
 23 24  2  0
 23 22  1  0
 25 23  1  0
 26 25  1  0
 27 26  1  0
 28 27  1  0
 29 28  1  6
 29 30  1  0
 30 20  1  0
 31 29  1  0
 31 32  1  0
 33 31  2  0
M  END
$$$$
