HFR.pdb
     RDKit          3D

 33 34  0  0  1  0  0  0  0  0999 V2000
   29.4507  -21.3231  -12.7644 N   0  0  0  0  0  0  0  0  0  0  0  0
   28.4465  -20.3614  -12.3913 C   0  0  1  0  0  0  0  0  0  0  0  0
   27.5902  -20.0191  -13.5861 C   0  0  0  0  0  0  0  0  0  0  0  0
   28.3914  -19.1694  -14.4990 C   0  0  0  0  0  0  0  0  0  0  0  0
   29.7103  -18.7955  -14.3717 C   0  0  0  0  0  0  0  0  0  0  0  0
   30.0292  -18.0249  -15.4285 N   0  0  0  0  0  0  0  0  0  0  0  0
   28.9485  -17.9025  -16.2178 C   0  0  0  0  0  0  0  0  0  0  0  0
   27.9539  -18.6075  -15.6379 N   0  0  0  0  0  0  0  0  0  0  0  0
   27.6439  -20.8479  -11.2419 C   0  0  0  0  0  0  0  0  0  0  0  0
   27.2701  -22.0575  -11.1547 O   0  0  0  0  0  0  0  0  0  0  0  0
   27.2281  -20.0411  -10.1659 N   0  0  0  0  0  0  0  0  0  0  0  0
   26.0399  -20.1984   -9.4067 C   0  0  1  0  0  0  0  0  0  0  0  0
   25.9164  -19.4731   -8.1312 C   0  0  0  0  0  0  0  0  0  0  0  0
   27.0477  -19.7581   -7.2198 C   0  0  0  0  0  0  0  0  0  0  0  0
   27.1042  -20.9037   -6.4527 C   0  0  0  0  0  0  0  0  0  0  0  0
   28.1295  -21.1882   -5.6013 C   0  0  0  0  0  0  0  0  0  0  0  0
   29.1811  -20.3032   -5.4771 C   0  0  0  0  0  0  0  0  0  0  0  0
   29.1646  -19.1462   -6.2254 C   0  0  0  0  0  0  0  0  0  0  0  0
   28.0992  -18.8787   -7.0927 C   0  0  0  0  0  0  0  0  0  0  0  0
   24.8787  -20.0702  -10.3231 C   0  0  0  0  0  0  0  0  0  0  0  0
   25.0207  -19.6526  -11.5016 O   0  0  0  0  0  0  0  0  0  0  0  0
   20.8844  -24.7559  -13.4194 N   0  0  0  0  0  0  0  0  0  0  0  0
   20.9645  -24.2652  -14.7467 C   0  0  0  0  0  0  0  0  0  0  0  0
   20.1723  -24.5642  -15.6923 N   0  0  0  0  0  0  0  0  0  0  0  0
   22.0311  -23.3480  -15.0874 N   0  0  0  0  0  0  0  0  0  0  0  0
   22.9164  -22.9216  -13.9767 C   0  0  0  0  0  0  0  0  0  0  0  0
   22.1757  -21.9923  -13.0710 C   0  0  0  0  0  0  0  0  0  0  0  0
   22.9099  -21.4756  -11.9308 C   0  0  0  0  0  0  0  0  0  0  0  0
   22.4381  -20.5245  -10.9219 C   0  0  2  0  0  0  0  0  0  0  0  0
   23.5715  -20.4106   -9.9144 N   0  0  0  0  0  0  0  0  0  0  0  0
   21.2509  -20.7767  -10.1274 C   0  0  0  0  0  0  0  0  0  0  0  0
   20.0007  -20.2845  -10.5529 O   0  0  0  0  0  0  0  0  0  0  0  0
   21.2353  -21.4102   -9.0669 O   0  0  0  0  0  0  0  0  0  0  0  0
  2  1  1  6
  2  3  1  0
  4  3  1  0
  5  4  2  0
  6  5  1  0
  7  6  1  0
  7  8  2  0
  8  4  1  0
  9  2  1  0
 10  9  2  0
 11  9  1  0
 12 13  1  1
 12 11  1  0
 13 14  1  0
 14 15  2  0
 15 16  1  0
 17 16  2  0
 18 17  1  0
 19 18  2  0
 19 14  1  0
 20 12  1  0
 21 20  2  0
 23 24  2  0
 23 22  1  0
 25 23  1  0
 26 25  1  0
 27 26  1  0
 28 27  1  0
 29 28  1  6
 29 30  1  0
 30 20  1  0
 31 29  1  0
 31 32  1  0
 33 31  2  0
M  END
$$$$
