HFR.pdb
     RDKit          3D

 33 34  0  0  1  0  0  0  0  0999 V2000
   27.4883  -22.3451  -17.0623 N   0  0  0  0  0  0  0  0  0  0  0  0
   27.3525  -21.0915  -16.3678 C   0  0  1  0  0  0  0  0  0  0  0  0
   26.6430  -20.0893  -17.2453 C   0  0  0  0  0  0  0  0  0  0  0  0
   27.5244  -19.7790  -18.3960 C   0  0  0  0  0  0  0  0  0  0  0  0
   27.3764  -20.1693  -19.7080 C   0  0  0  0  0  0  0  0  0  0  0  0
   28.4044  -19.6607  -20.4129 N   0  0  0  0  0  0  0  0  0  0  0  0
   29.1960  -18.9613  -19.5821 C   0  0  0  0  0  0  0  0  0  0  0  0
   28.6463  -19.0416  -18.3517 N   0  0  0  0  0  0  0  0  0  0  0  0
   26.6749  -21.2773  -15.0607 C   0  0  0  0  0  0  0  0  0  0  0  0
   25.5607  -21.8775  -14.9671 O   0  0  0  0  0  0  0  0  0  0  0  0
   27.1839  -20.8197  -13.8306 N   0  0  0  0  0  0  0  0  0  0  0  0
   26.5604  -20.9475  -12.5625 C   0  0  1  0  0  0  0  0  0  0  0  0
   27.3666  -20.7124  -11.3530 C   0  0  0  0  0  0  0  0  0  0  0  0
   26.5249  -20.5862  -10.1417 C   0  0  0  0  0  0  0  0  0  0  0  0
   25.9029  -21.6724   -9.5612 C   0  0  0  0  0  0  0  0  0  0  0  0
   25.1181  -21.5842   -8.4507 C   0  0  0  0  0  0  0  0  0  0  0  0
   24.9148  -20.3572   -7.8525 C   0  0  0  0  0  0  0  0  0  0  0  0
   25.5177  -19.2458   -8.4001 C   0  0  0  0  0  0  0  0  0  0  0  0
   26.3194  -19.3646   -9.5411 C   0  0  0  0  0  0  0  0  0  0  0  0
   25.2603  -20.2315  -12.6060 C   0  0  0  0  0  0  0  0  0  0  0  0
   25.1956  -19.0153  -12.9226 O   0  0  0  0  0  0  0  0  0  0  0  0
   22.8897  -18.0200  -17.1991 N   0  0  0  0  0  0  0  0  0  0  0  0
   21.6935  -17.2773  -17.0364 C   0  0  0  0  0  0  0  0  0  0  0  0
   21.4767  -16.1170  -17.5034 N   0  0  0  0  0  0  0  0  0  0  0  0
   20.6097  -17.8599  -16.2743 N   0  0  0  0  0  0  0  0  0  0  0  0
   20.9017  -19.1375  -15.5800 C   0  0  0  0  0  0  0  0  0  0  0  0
   21.9912  -18.9289  -14.5791 C   0  0  0  0  0  0  0  0  0  0  0  0
   22.3944  -20.0902  -13.8079 C   0  0  0  0  0  0  0  0  0  0  0  0
   22.7180  -20.1453  -12.3805 C   0  0  2  0  0  0  0  0  0  0  0  0
   24.0463  -20.8811  -12.2967 N   0  0  0  0  0  0  0  0  0  0  0  0
   21.8555  -20.8137  -11.4247 C   0  0  0  0  0  0  0  0  0  0  0  0
   20.8910  -20.0755  -10.7097 O   0  0  0  0  0  0  0  0  0  0  0  0
   21.8909  -22.0219  -11.1694 O   0  0  0  0  0  0  0  0  0  0  0  0
  2  1  1  6
  2  3  1  0
  4  3  1  0
  5  4  2  0
  6  5  1  0
  7  6  1  0
  7  8  2  0
  8  4  1  0
  9  2  1  0
 10  9  2  0
 11  9  1  0
 12 13  1  1
 12 11  1  0
 13 14  1  0
 14 15  2  0
 15 16  1  0
 17 16  2  0
 18 17  1  0
 19 18  2  0
 19 14  1  0
 20 12  1  0
 21 20  2  0
 23 24  2  0
 23 22  1  0
 25 23  1  0
 26 25  1  0
 27 26  1  0
 28 27  1  0
 29 28  1  6
 29 30  1  0
 30 20  1  0
 31 29  1  0
 31 32  1  0
 33 31  2  0
M  END
$$$$
