HFR.pdb
     RDKit          3D

 33 34  0  0  1  0  0  0  0  0999 V2000
   28.9174  -22.2016  -16.7931 N   0  0  0  0  0  0  0  0  0  0  0  0
   27.7429  -21.3700  -16.7563 C   0  0  1  0  0  0  0  0  0  0  0  0
   26.9541  -21.5338  -18.0325 C   0  0  0  0  0  0  0  0  0  0  0  0
   27.6657  -20.8066  -19.1106 C   0  0  0  0  0  0  0  0  0  0  0  0
   27.6355  -19.4585  -19.3883 C   0  0  0  0  0  0  0  0  0  0  0  0
   28.4311  -19.2336  -20.4508 N   0  0  0  0  0  0  0  0  0  0  0  0
   28.9614  -20.4019  -20.8505 C   0  0  0  0  0  0  0  0  0  0  0  0
   28.4853  -21.3558  -20.0222 N   0  0  0  0  0  0  0  0  0  0  0  0
   26.9281  -21.6520  -15.5485 C   0  0  0  0  0  0  0  0  0  0  0  0
   26.6524  -22.8386  -15.1929 O   0  0  0  0  0  0  0  0  0  0  0  0
   26.3944  -20.6619  -14.7021 N   0  0  0  0  0  0  0  0  0  0  0  0
   25.7563  -20.8776  -13.4534 C   0  0  1  0  0  0  0  0  0  0  0  0
   26.2583  -20.1579  -12.2709 C   0  0  0  0  0  0  0  0  0  0  0  0
   27.6322  -20.5750  -11.9103 C   0  0  0  0  0  0  0  0  0  0  0  0
   28.7442  -20.0986  -12.5740 C   0  0  0  0  0  0  0  0  0  0  0  0
   30.0189  -20.4700  -12.2673 C   0  0  0  0  0  0  0  0  0  0  0  0
   30.2421  -21.3692  -11.2445 C   0  0  0  0  0  0  0  0  0  0  0  0
   29.1592  -21.8700  -10.5553 C   0  0  0  0  0  0  0  0  0  0  0  0
   27.8602  -21.4713  -10.8905 C   0  0  0  0  0  0  0  0  0  0  0  0
   24.2876  -20.8086  -13.6603 C   0  0  0  0  0  0  0  0  0  0  0  0
   23.7540  -19.8180  -14.2237 O   0  0  0  0  0  0  0  0  0  0  0  0
   19.5504  -27.7757  -12.6567 N   0  0  0  0  0  0  0  0  0  0  0  0
   18.9497  -26.8036  -11.8182 C   0  0  0  0  0  0  0  0  0  0  0  0
   18.2215  -27.0499  -10.8080 N   0  0  0  0  0  0  0  0  0  0  0  0
   19.1600  -25.4025  -12.1140 N   0  0  0  0  0  0  0  0  0  0  0  0
   19.8731  -25.0932  -13.3770 C   0  0  0  0  0  0  0  0  0  0  0  0
   20.0811  -23.6179  -13.4893 C   0  0  0  0  0  0  0  0  0  0  0  0
   21.4405  -23.1397  -13.3178 C   0  0  0  0  0  0  0  0  0  0  0  0
   21.9286  -21.7663  -13.4623 C   0  0  2  0  0  0  0  0  0  0  0  0
   23.4304  -21.8467  -13.2371 N   0  0  0  0  0  0  0  0  0  0  0  0
   21.4737  -20.6966  -12.5946 C   0  0  0  0  0  0  0  0  0  0  0  0
   20.3391  -19.9381  -12.9466 O   0  0  0  0  0  0  0  0  0  0  0  0
   22.0131  -20.3760  -11.5304 O   0  0  0  0  0  0  0  0  0  0  0  0
  2  1  1  6
  2  3  1  0
  4  3  1  0
  5  4  2  0
  6  5  1  0
  7  6  1  0
  7  8  2  0
  8  4  1  0
  9  2  1  0
 10  9  2  0
 11  9  1  0
 12 13  1  1
 12 11  1  0
 13 14  1  0
 14 15  2  0
 15 16  1  0
 17 16  2  0
 18 17  1  0
 19 18  2  0
 19 14  1  0
 20 12  1  0
 21 20  2  0
 23 24  2  0
 23 22  1  0
 25 23  1  0
 26 25  1  0
 27 26  1  0
 28 27  1  0
 29 28  1  1
 29 30  1  0
 30 20  1  0
 31 29  1  0
 31 32  1  0
 33 31  2  0
M  END
$$$$
