HFR.pdb
     RDKit          3D

 33 34  0  0  1  0  0  0  0  0999 V2000
   20.0700  -18.4333  -16.1955 N   0  0  0  0  0  0  0  0  0  0  0  0
   21.1607  -17.7746  -15.5255 C   0  0  1  0  0  0  0  0  0  0  0  0
   20.9861  -17.8783  -14.0299 C   0  0  0  0  0  0  0  0  0  0  0  0
   19.7812  -17.1020  -13.6518 C   0  0  0  0  0  0  0  0  0  0  0  0
   18.6091  -17.5689  -13.1007 C   0  0  0  0  0  0  0  0  0  0  0  0
   17.7870  -16.5187  -12.9175 N   0  0  0  0  0  0  0  0  0  0  0  0
   18.4078  -15.4035  -13.3379 C   0  0  0  0  0  0  0  0  0  0  0  0
   19.6268  -15.7743  -13.7843 N   0  0  0  0  0  0  0  0  0  0  0  0
   22.4673  -18.3113  -15.9802 C   0  0  0  0  0  0  0  0  0  0  0  0
   22.6355  -19.5475  -16.2121 O   0  0  0  0  0  0  0  0  0  0  0  0
   23.6170  -17.5272  -16.1925 N   0  0  0  0  0  0  0  0  0  0  0  0
   24.8745  -17.9879  -16.6609 C   0  0  1  0  0  0  0  0  0  0  0  0
   25.6607  -17.1135  -17.5472 C   0  0  0  0  0  0  0  0  0  0  0  0
   26.9817  -17.6974  -17.8723 C   0  0  0  0  0  0  0  0  0  0  0  0
   27.1254  -18.7442  -18.7597 C   0  0  0  0  0  0  0  0  0  0  0  0
   28.3275  -19.3047  -19.0724 C   0  0  0  0  0  0  0  0  0  0  0  0
   29.4802  -18.8224  -18.4865 C   0  0  0  0  0  0  0  0  0  0  0  0
   29.3818  -17.7772  -17.5939 C   0  0  0  0  0  0  0  0  0  0  0  0
   28.1345  -17.2196  -17.2909 C   0  0  0  0  0  0  0  0  0  0  0  0
   25.6207  -18.5606  -15.5120 C   0  0  0  0  0  0  0  0  0  0  0  0
   25.9848  -17.8404  -14.5464 O   0  0  0  0  0  0  0  0  0  0  0  0
   22.5205  -20.2846   -9.5630 N   0  0  0  0  0  0  0  0  0  0  0  0
   22.4304  -20.5340  -10.9553 C   0  0  0  0  0  0  0  0  0  0  0  0
   21.3572  -20.5527  -11.6331 N   0  0  0  0  0  0  0  0  0  0  0  0
   23.6454  -20.7987  -11.6959 N   0  0  0  0  0  0  0  0  0  0  0  0
   24.8953  -20.8935  -10.9035 C   0  0  0  0  0  0  0  0  0  0  0  0
   26.0705  -20.9636  -11.8236 C   0  0  0  0  0  0  0  0  0  0  0  0
   25.8008  -20.7691  -13.2362 C   0  0  0  0  0  0  0  0  0  0  0  0
   26.7689  -20.4930  -14.3000 C   0  0  2  0  0  0  0  0  0  0  0  0
   25.9514  -19.9312  -15.4527 N   0  0  0  0  0  0  0  0  0  0  0  0
   27.5801  -21.5416  -14.8885 C   0  0  0  0  0  0  0  0  0  0  0  0
   28.6919  -22.0499  -14.1871 O   0  0  0  0  0  0  0  0  0  0  0  0
   27.3768  -22.0512  -15.9954 O   0  0  0  0  0  0  0  0  0  0  0  0
  2  1  1  6
  2  3  1  0
  4  3  1  0
  5  4  2  0
  6  5  1  0
  7  6  1  0
  7  8  2  0
  8  4  1  0
  9  2  1  0
 10  9  2  0
 11  9  1  0
 12 13  1  1
 12 11  1  0
 13 14  1  0
 14 15  2  0
 15 16  1  0
 17 16  2  0
 18 17  1  0
 19 18  2  0
 19 14  1  0
 20 12  1  0
 21 20  2  0
 23 24  2  0
 23 22  1  0
 25 23  1  0
 26 25  1  0
 27 26  1  0
 28 27  1  0
 29 28  1  1
 29 30  1  0
 30 20  1  0
 31 29  1  0
 31 32  1  0
 33 31  2  0
M  END
$$$$
