HFR.pdb
     RDKit          3D

 33 34  0  0  1  0  0  0  0  0999 V2000
   28.7957  -21.5784  -16.7874 N   0  0  0  0  0  0  0  0  0  0  0  0
   27.5593  -20.8540  -16.6491 C   0  0  1  0  0  0  0  0  0  0  0  0
   26.6930  -21.0745  -17.8652 C   0  0  0  0  0  0  0  0  0  0  0  0
   27.2737  -20.3039  -18.9905 C   0  0  0  0  0  0  0  0  0  0  0  0
   27.8992  -20.7880  -20.1173 C   0  0  0  0  0  0  0  0  0  0  0  0
   28.2676  -19.7372  -20.8739 N   0  0  0  0  0  0  0  0  0  0  0  0
   27.8921  -18.6047  -20.2554 C   0  0  0  0  0  0  0  0  0  0  0  0
   27.2852  -18.9656  -19.1047 N   0  0  0  0  0  0  0  0  0  0  0  0
   26.8665  -21.2184  -15.3884 C   0  0  0  0  0  0  0  0  0  0  0  0
   26.7764  -22.4238  -15.0020 O   0  0  0  0  0  0  0  0  0  0  0  0
   26.2571  -20.2920  -14.5212 N   0  0  0  0  0  0  0  0  0  0  0  0
   25.6308  -20.5856  -13.2825 C   0  0  1  0  0  0  0  0  0  0  0  0
   26.1348  -19.9298  -12.0642 C   0  0  0  0  0  0  0  0  0  0  0  0
   27.5385  -20.3010  -11.7752 C   0  0  0  0  0  0  0  0  0  0  0  0
   28.5990  -19.7827  -12.4897 C   0  0  0  0  0  0  0  0  0  0  0  0
   29.8994  -20.1114  -12.2494 C   0  0  0  0  0  0  0  0  0  0  0  0
   30.2040  -21.0080  -11.2455 C   0  0  0  0  0  0  0  0  0  0  0  0
   29.1745  -21.5499  -10.5071 C   0  0  0  0  0  0  0  0  0  0  0  0
   27.8475  -21.1946  -10.7745 C   0  0  0  0  0  0  0  0  0  0  0  0
   24.1599  -20.5201  -13.4746 C   0  0  0  0  0  0  0  0  0  0  0  0
   23.6105  -19.4981  -13.9617 O   0  0  0  0  0  0  0  0  0  0  0  0
   21.1789  -27.1590  -13.5362 N   0  0  0  0  0  0  0  0  0  0  0  0
   21.2018  -26.5270  -14.8046 C   0  0  0  0  0  0  0  0  0  0  0  0
   21.7787  -26.9766  -15.8421 N   0  0  0  0  0  0  0  0  0  0  0  0
   20.5243  -25.2579  -14.9632 N   0  0  0  0  0  0  0  0  0  0  0  0
   19.7602  -24.7654  -13.7915 C   0  0  0  0  0  0  0  0  0  0  0  0
   19.9664  -23.2936  -13.6384 C   0  0  0  0  0  0  0  0  0  0  0  0
   21.3167  -22.8557  -13.3369 C   0  0  0  0  0  0  0  0  0  0  0  0
   21.8059  -21.4793  -13.2301 C   0  0  2  0  0  0  0  0  0  0  0  0
   23.3183  -21.5965  -13.1220 N   0  0  0  0  0  0  0  0  0  0  0  0
   21.4156  -20.6104  -12.1362 C   0  0  0  0  0  0  0  0  0  0  0  0
   20.2570  -19.8155  -12.2467 O   0  0  0  0  0  0  0  0  0  0  0  0
   22.0324  -20.4987  -11.0716 O   0  0  0  0  0  0  0  0  0  0  0  0
  2  1  1  6
  2  3  1  0
  4  3  1  0
  5  4  2  0
  6  5  1  0
  7  6  1  0
  7  8  2  0
  8  4  1  0
  9  2  1  0
 10  9  2  0
 11  9  1  0
 12 13  1  1
 12 11  1  0
 13 14  1  0
 14 15  2  0
 15 16  1  0
 17 16  2  0
 18 17  1  0
 19 18  2  0
 19 14  1  0
 20 12  1  0
 21 20  2  0
 23 24  2  0
 23 22  1  0
 25 23  1  0
 26 25  1  0
 27 26  1  0
 28 27  1  0
 29 28  1  1
 29 30  1  0
 30 20  1  0
 31 29  1  0
 31 32  1  0
 33 31  2  0
M  END
$$$$
