HFR.pdb
     RDKit          3D

 33 34  0  0  1  0  0  0  0  0999 V2000
   19.9525  -19.7066  -13.5895 N   0  0  0  0  0  0  0  0  0  0  0  0
   20.7878  -20.8620  -13.3901 C   0  0  1  0  0  0  0  0  0  0  0  0
   20.4164  -21.9437  -14.3749 C   0  0  0  0  0  0  0  0  0  0  0  0
   19.0239  -22.3661  -14.0920 C   0  0  0  0  0  0  0  0  0  0  0  0
   17.8885  -22.0894  -14.8197 C   0  0  0  0  0  0  0  0  0  0  0  0
   16.8445  -22.6727  -14.2017 N   0  0  0  0  0  0  0  0  0  0  0  0
   17.2900  -23.3090  -13.1050 C   0  0  0  0  0  0  0  0  0  0  0  0
   18.6247  -23.1137  -13.0498 N   0  0  0  0  0  0  0  0  0  0  0  0
   22.2249  -20.4997  -13.4645 C   0  0  0  0  0  0  0  0  0  0  0  0
   22.6766  -19.7513  -14.3844 O   0  0  0  0  0  0  0  0  0  0  0  0
   23.2021  -20.9371  -12.5505 N   0  0  0  0  0  0  0  0  0  0  0  0
   24.5884  -20.6385  -12.5944 C   0  0  1  0  0  0  0  0  0  0  0  0
   25.3475  -20.6249  -11.3328 C   0  0  0  0  0  0  0  0  0  0  0  0
   26.8033  -20.4867  -11.5633 C   0  0  0  0  0  0  0  0  0  0  0  0
   27.7005  -21.4760  -11.2165 C   0  0  0  0  0  0  0  0  0  0  0  0
   29.0453  -21.3728  -11.4113 C   0  0  0  0  0  0  0  0  0  0  0  0
   29.5681  -20.2305  -11.9827 C   0  0  0  0  0  0  0  0  0  0  0  0
   28.7069  -19.2174  -12.3441 C   0  0  0  0  0  0  0  0  0  0  0  0
   27.3297  -19.3495  -12.1332 C   0  0  0  0  0  0  0  0  0  0  0  0
   25.2020  -21.4252  -13.6941 C   0  0  0  0  0  0  0  0  0  0  0  0
   25.2209  -22.6831  -13.6645 O   0  0  0  0  0  0  0  0  0  0  0  0
   21.8015  -21.3274  -20.4894 N   0  0  0  0  0  0  0  0  0  0  0  0
   22.6591  -20.2651  -20.1087 C   0  0  0  0  0  0  0  0  0  0  0  0
   22.4744  -19.0374  -20.3733 N   0  0  0  0  0  0  0  0  0  0  0  0
   23.8582  -20.5721  -19.3585 N   0  0  0  0  0  0  0  0  0  0  0  0
   24.1496  -22.0092  -19.1369 C   0  0  0  0  0  0  0  0  0  0  0  0
   25.3995  -22.1509  -18.3306 C   0  0  0  0  0  0  0  0  0  0  0  0
   25.4582  -21.4030  -17.0883 C   0  0  0  0  0  0  0  0  0  0  0  0
   26.3658  -21.6180  -15.9590 C   0  0  2  0  0  0  0  0  0  0  0  0
   25.7870  -20.7994  -14.8156 N   0  0  0  0  0  0  0  0  0  0  0  0
   27.7660  -21.2441  -16.0198 C   0  0  0  0  0  0  0  0  0  0  0  0
   28.7615  -22.2416  -16.0383 O   0  0  0  0  0  0  0  0  0  0  0  0
   28.1831  -20.0818  -16.0580 O   0  0  0  0  0  0  0  0  0  0  0  0
  2  1  1  6
  2  3  1  0
  4  3  1  0
  5  4  2  0
  6  5  1  0
  7  6  1  0
  7  8  2  0
  8  4  1  0
  9  2  1  0
 10  9  2  0
 11  9  1  0
 12 13  1  1
 12 11  1  0
 13 14  1  0
 14 15  2  0
 15 16  1  0
 17 16  2  0
 18 17  1  0
 19 18  2  0
 19 14  1  0
 20 12  1  0
 21 20  2  0
 23 24  2  0
 23 22  1  0
 25 23  1  0
 26 25  1  0
 27 26  1  0
 28 27  1  0
 29 28  1  6
 29 30  1  0
 30 20  1  0
 31 29  1  0
 31 32  1  0
 33 31  2  0
M  END
$$$$
