CRD.pdb
     RDKit          3D

 26 25  0  0  1  0  0  0  0  0999 V2000
   26.8148  -14.5104  -17.4997 N   0  0  0  0  0  0  0  0  0  0  0  0
   26.1042  -14.6846  -16.2449 C   0  0  1  0  0  0  0  0  0  0  0  0
   24.9259  -13.7187  -16.2681 C   0  0  0  0  0  0  0  0  0  0  0  0
   25.4446  -12.1744  -15.4593 S   0  0  0  0  0  0  0  0  0  0  0  0
   25.5706  -16.0738  -16.1932 C   0  0  0  0  0  0  0  0  0  0  0  0
   25.0025  -16.5955  -17.1915 O   0  0  0  0  0  0  0  0  0  0  0  0
   26.1024  -23.0904  -14.5592 N   0  0  0  0  0  0  0  0  0  0  0  0
   25.6773  -23.3134  -13.2168 C   0  0  0  0  0  0  0  0  0  0  0  0
   25.0750  -24.3849  -12.8417 N   0  0  0  0  0  0  0  0  0  0  0  0
   25.9240  -22.3090  -12.2432 N   0  0  0  0  0  0  0  0  0  0  0  0
   26.3670  -21.0071  -12.6487 C   0  0  0  0  0  0  0  0  0  0  0  0
   25.4484  -20.3674  -13.6730 C   0  0  0  0  0  0  0  0  0  0  0  0
   25.9667  -19.0151  -14.0558 C   0  0  0  0  0  0  0  0  0  0  0  0
   25.1292  -18.2575  -15.0279 C   0  0  2  0  0  0  0  0  0  0  0  0
   25.6704  -16.8828  -15.0271 N   0  0  0  0  0  0  0  0  0  0  0  0
   23.7074  -18.1893  -14.6638 C   0  0  0  0  0  0  0  0  0  0  0  0
   23.3321  -17.5282  -13.6659 O   0  0  0  0  0  0  0  0  0  0  0  0
   24.7314  -24.4439  -11.8478 N   0  0  0  0  0  0  0  0  0  0  0  0
   22.7216  -18.8572  -15.4149 C   0  0  2  0  0  0  0  0  0  0  0  0
   21.3378  -18.7851  -14.9921 C   0  0  0  0  0  0  0  0  0  0  0  0
   20.5311  -18.2287  -16.1476 C   0  0  0  0  0  0  0  0  0  0  0  0
   19.0994  -18.0349  -15.8394 O   0  0  0  0  0  0  0  0  0  0  0  0
   18.6994  -18.1949  -14.6457 C   0  0  0  0  0  0  0  0  0  0  0  0
   20.9292  -20.1672  -14.6606 O   0  0  0  0  0  0  0  0  0  0  0  0
   19.9699  -20.4851  -13.7298 O   0  0  0  0  0  0  0  0  0  0  0  0
   18.1221  -17.6868  -16.7540 O   0  0  0  0  0  0  0  0  0  0  0  0
  2  1  1  6
  3  2  1  0
  4  3  1  0
  5  2  1  0
  5  6  2  0
  7  8  1  0
  8  9  2  0
  8 10  1  0
 10 11  1  0
 11 12  1  0
 12 13  1  0
 14 13  1  1
 14 15  1  0
 15  5  1  0
 16 14  1  0
 17 16  2  0
 18 16  1  0
 19 18  1  0
 19 20  1  6
 20 21  1  0
 21 25  1  0
 22 21  2  0
 23 19  1  0
 24 23  1  0
 26 23  2  0
M  END
$$$$
