CRD.pdb
     RDKit          3D

 26 25  0  0  1  0  0  0  0  0999 V2000
   16.9949  -14.5990  -17.0260 N   0  0  0  0  0  0  0  0  0  0  0  0
   16.8800  -13.8458  -15.7894 C   0  0  1  0  0  0  0  0  0  0  0  0
   17.9975  -14.3296  -14.8734 C   0  0  0  0  0  0  0  0  0  0  0  0
   17.4533  -15.8759  -14.0855 S   0  0  0  0  0  0  0  0  0  0  0  0
   17.1108  -12.4058  -16.0901 C   0  0  0  0  0  0  0  0  0  0  0  0
   17.9496  -12.0440  -16.9602 O   0  0  0  0  0  0  0  0  0  0  0  0
   11.7450   -5.7746  -14.1648 N   0  0  0  0  0  0  0  0  0  0  0  0
   12.7257   -5.0880  -14.9390 C   0  0  0  0  0  0  0  0  0  0  0  0
   12.6416   -3.8383  -15.2270 N   0  0  0  0  0  0  0  0  0  0  0  0
   13.8491   -5.8114  -15.4207 N   0  0  0  0  0  0  0  0  0  0  0  0
   14.0186   -7.1921  -15.0737 C   0  0  0  0  0  0  0  0  0  0  0  0
   15.2957   -7.7863  -15.6377 C   0  0  0  0  0  0  0  0  0  0  0  0
   15.3539   -9.2542  -15.3446 C   0  0  0  0  0  0  0  0  0  0  0  0
   16.5610   -9.9638  -15.8542 C   0  0  2  0  0  0  0  0  0  0  0  0
   16.4055  -11.3675  -15.4203 N   0  0  0  0  0  0  0  0  0  0  0  0
   17.8267   -9.4543  -15.3090 C   0  0  0  0  0  0  0  0  0  0  0  0
   18.2355   -9.8259  -14.1828 O   0  0  0  0  0  0  0  0  0  0  0  0
   13.3743   -3.4199  -15.8574 N   0  0  0  0  0  0  0  0  0  0  0  0
   18.6213   -8.5383  -16.0243 C   0  0  2  0  0  0  0  0  0  0  0  0
   19.8809   -8.0995  -15.4589 C   0  0  0  0  0  0  0  0  0  0  0  0
   20.9708   -8.9961  -16.0098 C   0  0  0  0  0  0  0  0  0  0  0  0
   22.3392   -8.5413  -15.6889 O   0  0  0  0  0  0  0  0  0  0  0  0
   22.4913   -7.5069  -14.9697 C   0  0  0  0  0  0  0  0  0  0  0  0
   20.0649   -6.6957  -15.8864 O   0  0  0  0  0  0  0  0  0  0  0  0
   20.6687   -5.7292  -15.1190 O   0  0  0  0  0  0  0  0  0  0  0  0
   23.5066   -9.1514  -16.1102 O   0  0  0  0  0  0  0  0  0  0  0  0
  2  1  1  6
  3  2  1  0
  4  3  1  0
  5  2  1  0
  5  6  2  0
  7  8  1  0
  8  9  2  0
  8 10  1  0
 10 11  1  0
 11 12  1  0
 12 13  1  0
 14 13  1  1
 14 15  1  0
 15  5  1  0
 16 14  1  0
 17 16  2  0
 18 16  1  0
 19 18  1  0
 19 20  1  6
 20 21  1  0
 21 25  1  0
 22 21  2  0
 23 19  1  0
 24 23  1  0
 26 23  2  0
M  END
$$$$
