CRD.pdb
     RDKit          3D

 26 25  0  0  1  0  0  0  0  0999 V2000
   17.6147  -20.9598  -13.9569 N   0  0  0  0  0  0  0  0  0  0  0  0
   18.6316  -21.1075  -12.9304 C   0  0  1  0  0  0  0  0  0  0  0  0
   18.5347  -19.8790  -12.0343 C   0  0  0  0  0  0  0  0  0  0  0  0
   19.5526  -18.5622  -12.7678 S   0  0  0  0  0  0  0  0  0  0  0  0
   18.3076  -22.3099  -12.1140 C   0  0  0  0  0  0  0  0  0  0  0  0
   17.1408  -22.5122  -11.6792 O   0  0  0  0  0  0  0  0  0  0  0  0
   21.3831  -29.7501   -9.9176 N   0  0  0  0  0  0  0  0  0  0  0  0
   20.7588  -30.1047  -11.1492 C   0  0  0  0  0  0  0  0  0  0  0  0
   20.4137  -31.3085  -11.4384 N   0  0  0  0  0  0  0  0  0  0  0  0
   20.5053  -29.0877  -12.1076 N   0  0  0  0  0  0  0  0  0  0  0  0
   20.8327  -27.7233  -11.8127 C   0  0  0  0  0  0  0  0  0  0  0  0
   19.6060  -26.8674  -11.5582 C   0  0  0  0  0  0  0  0  0  0  0  0
   20.0162  -25.4650  -11.2281 C   0  0  0  0  0  0  0  0  0  0  0  0
   18.8993  -24.4991  -11.0282 C   0  0  2  0  0  0  0  0  0  0  0  0
   19.2856  -23.2884  -11.7818 N   0  0  0  0  0  0  0  0  0  0  0  0
   18.6862  -24.1159   -9.6258 C   0  0  0  0  0  0  0  0  0  0  0  0
   19.4121  -23.2504   -9.0802 O   0  0  0  0  0  0  0  0  0  0  0  0
   19.9746  -31.4909  -12.3782 N   0  0  0  0  0  0  0  0  0  0  0  0
   17.6679  -24.7005   -8.8489 C   0  0  2  0  0  0  0  0  0  0  0  0
   17.4074  -24.1875   -7.5194 C   0  0  0  0  0  0  0  0  0  0  0  0
   15.9051  -24.1484   -7.3266 C   0  0  0  0  0  0  0  0  0  0  0  0
   15.4868  -23.8088   -5.9511 O   0  0  0  0  0  0  0  0  0  0  0  0
   14.2587  -23.8931   -5.6426 C   0  0  0  0  0  0  0  0  0  0  0  0
   18.0515  -25.1260   -6.5752 O   0  0  0  0  0  0  0  0  0  0  0  0
   18.5977  -24.7539   -5.3707 O   0  0  0  0  0  0  0  0  0  0  0  0
   16.3294  -23.3937   -4.9360 O   0  0  0  0  0  0  0  0  0  0  0  0
  2  1  1  6
  3  2  1  0
  4  3  1  0
  5  2  1  0
  5  6  2  0
  7  8  1  0
  8  9  2  0
  8 10  1  0
 10 11  1  0
 11 12  1  0
 12 13  1  0
 14 13  1  1
 14 15  1  0
 15  5  1  0
 16 14  1  0
 17 16  2  0
 18 16  1  0
 19 18  1  0
 19 20  1  6
 20 21  1  0
 21 25  1  0
 22 21  2  0
 23 19  1  0
 24 23  1  0
 26 23  2  0
M  END
$$$$
