CRD.pdb
     RDKit          3D

 26 25  0  0  1  0  0  0  0  0999 V2000
   27.4808  -19.2801   -8.3998 N   0  0  0  0  0  0  0  0  0  0  0  0
   26.5937  -20.4067   -8.6315 C   0  0  1  0  0  0  0  0  0  0  0  0
   25.4894  -20.3203   -7.5853 C   0  0  0  0  0  0  0  0  0  0  0  0
   26.2547  -20.4664   -5.9417 S   0  0  0  0  0  0  0  0  0  0  0  0
   25.9768  -20.2530   -9.9780 C   0  0  0  0  0  0  0  0  0  0  0  0
   25.6025  -19.1258  -10.4030 O   0  0  0  0  0  0  0  0  0  0  0  0
   24.7722  -25.5690  -15.8830 N   0  0  0  0  0  0  0  0  0  0  0  0
   25.0347  -24.5757  -16.8714 C   0  0  0  0  0  0  0  0  0  0  0  0
   24.4975  -24.5901  -18.0388 N   0  0  0  0  0  0  0  0  0  0  0  0
   25.9323  -23.5196  -16.5611 N   0  0  0  0  0  0  0  0  0  0  0  0
   26.3681  -23.3191  -15.2100 C   0  0  0  0  0  0  0  0  0  0  0  0
   25.5541  -22.2663  -14.4811 C   0  0  0  0  0  0  0  0  0  0  0  0
   26.0358  -22.1295  -13.0693 C   0  0  0  0  0  0  0  0  0  0  0  0
   25.3045  -21.1351  -12.2344 C   0  0  2  0  0  0  0  0  0  0  0  0
   25.7768  -21.3575  -10.8523 N   0  0  0  0  0  0  0  0  0  0  0  0
   23.8447  -21.3013  -12.2509 C   0  0  0  0  0  0  0  0  0  0  0  0
   23.2989  -22.2384  -11.6205 O   0  0  0  0  0  0  0  0  0  0  0  0
   24.6901  -23.7835  -18.6881 N   0  0  0  0  0  0  0  0  0  0  0  0
   23.0113  -20.4223  -12.9685 C   0  0  2  0  0  0  0  0  0  0  0  0
   21.5757  -20.6124  -12.9252 C   0  0  0  0  0  0  0  0  0  0  0  0
   20.9249  -19.2927  -13.2862 C   0  0  0  0  0  0  0  0  0  0  0  0
   19.5071  -19.1945  -12.8831 O   0  0  0  0  0  0  0  0  0  0  0  0
   18.9747  -20.1654  -12.2632 C   0  0  0  0  0  0  0  0  0  0  0  0
   21.2625  -21.6619  -13.9190 O   0  0  0  0  0  0  0  0  0  0  0  0
   21.9057  -21.7974  -15.1254 O   0  0  0  0  0  0  0  0  0  0  0  0
   18.6777  -18.1145  -13.1245 O   0  0  0  0  0  0  0  0  0  0  0  0
  2  1  1  1
  3  2  1  0
  4  3  1  0
  5  2  1  0
  5  6  2  0
  7  8  1  0
  8  9  2  0
  8 10  1  0
 10 11  1  0
 11 12  1  0
 12 13  1  0
 14 13  1  6
 14 15  1  0
 15  5  1  0
 16 14  1  0
 17 16  2  0
 18 16  1  0
 19 18  1  0
 19 20  1  6
 20 21  1  0
 21 25  1  0
 22 21  2  0
 23 19  1  0
 24 23  1  0
 26 23  2  0
M  END
$$$$
