CRD.pdb
     RDKit          3D

 26 25  0  0  1  0  0  0  0  0999 V2000
   27.4051  -21.4458  -11.6050 N   0  0  0  0  0  0  0  0  0  0  0  0
   25.9774  -21.4670  -11.3391 C   0  0  1  0  0  0  0  0  0  0  0  0
   25.7600  -20.7035  -10.0385 C   0  0  0  0  0  0  0  0  0  0  0  0
   23.9799  -20.7173   -9.6654 S   0  0  0  0  0  0  0  0  0  0  0  0
   25.2820  -20.7354  -12.4339 C   0  0  0  0  0  0  0  0  0  0  0  0
   25.5741  -19.5401  -12.7123 O   0  0  0  0  0  0  0  0  0  0  0  0
   25.8154  -24.6554  -15.1871 N   0  0  0  0  0  0  0  0  0  0  0  0
   25.4187  -24.9987  -16.5127 C   0  0  0  0  0  0  0  0  0  0  0  0
   25.0638  -26.1863  -16.8522 N   0  0  0  0  0  0  0  0  0  0  0  0
   25.4153  -23.9885  -17.5110 N   0  0  0  0  0  0  0  0  0  0  0  0
   25.3203  -22.6076  -17.1372 C   0  0  0  0  0  0  0  0  0  0  0  0
   24.5173  -22.3975  -15.8671 C   0  0  0  0  0  0  0  0  0  0  0  0
   24.4438  -20.9374  -15.5401 C   0  0  0  0  0  0  0  0  0  0  0  0
   23.6417  -20.5888  -14.3337 C   0  0  2  0  0  0  0  0  0  0  0  0
   24.2598  -21.3369  -13.2196 N   0  0  0  0  0  0  0  0  0  0  0  0
   22.2293  -20.9844  -14.4219 C   0  0  0  0  0  0  0  0  0  0  0  0
   21.8618  -22.1316  -14.0723 O   0  0  0  0  0  0  0  0  0  0  0  0
   24.7666  -26.3540  -17.8485 N   0  0  0  0  0  0  0  0  0  0  0  0
   21.2444  -20.0980  -14.8977 C   0  0  2  0  0  0  0  0  0  0  0  0
   19.8483  -20.4739  -14.8061 C   0  0  0  0  0  0  0  0  0  0  0  0
   19.0535  -19.2225  -14.4935 C   0  0  0  0  0  0  0  0  0  0  0  0
   17.5908  -19.4290  -14.4844 O   0  0  0  0  0  0  0  0  0  0  0  0
   17.1337  -20.6014  -14.6487 C   0  0  0  0  0  0  0  0  0  0  0  0
   19.4792  -21.0366  -16.1230 O   0  0  0  0  0  0  0  0  0  0  0  0
   18.5139  -21.9965  -16.3078 O   0  0  0  0  0  0  0  0  0  0  0  0
   16.6420  -18.4381  -14.3104 O   0  0  0  0  0  0  0  0  0  0  0  0
  2  1  1  6
  3  2  1  0
  4  3  1  0
  5  2  1  0
  5  6  2  0
  7  8  1  0
  8  9  2  0
  8 10  1  0
 10 11  1  0
 11 12  1  0
 12 13  1  0
 14 13  1  6
 14 15  1  0
 15  5  1  0
 16 14  1  0
 17 16  2  0
 18 16  1  0
 19 18  1  0
 19 20  1  6
 20 21  1  0
 21 25  1  0
 22 21  2  0
 23 19  1  0
 24 23  1  0
 26 23  2  0
M  END
$$$$
