CRD.pdb
     RDKit          3D

 26 25  0  0  1  0  0  0  0  0999 V2000
   16.0954  -12.8458  -15.3165 N   0  0  0  0  0  0  0  0  0  0  0  0
   17.1337  -12.2478  -14.4955 C   0  0  1  0  0  0  0  0  0  0  0  0
   18.3376  -12.0232  -15.4021 C   0  0  0  0  0  0  0  0  0  0  0  0
   19.2514  -13.5909  -15.5273 S   0  0  0  0  0  0  0  0  0  0  0  0
   16.6530  -10.9219  -14.0176 C   0  0  0  0  0  0  0  0  0  0  0  0
   16.0312  -10.1351  -14.7830 O   0  0  0  0  0  0  0  0  0  0  0  0
   12.7598   -7.9341   -8.2649 N   0  0  0  0  0  0  0  0  0  0  0  0
   13.6811   -6.9420   -7.8182 C   0  0  0  0  0  0  0  0  0  0  0  0
   13.3167   -5.7734   -7.4267 N   0  0  0  0  0  0  0  0  0  0  0  0
   15.0676   -7.2498   -7.8048 N   0  0  0  0  0  0  0  0  0  0  0  0
   15.5621   -8.3753   -8.5425 C   0  0  0  0  0  0  0  0  0  0  0  0
   15.6641   -8.1019  -10.0315 C   0  0  0  0  0  0  0  0  0  0  0  0
   16.1882   -9.3119  -10.7423 C   0  0  0  0  0  0  0  0  0  0  0  0
   16.2710   -9.1999  -12.2259 C   0  0  2  0  0  0  0  0  0  0  0  0
   16.8655  -10.4723  -12.6846 N   0  0  0  0  0  0  0  0  0  0  0  0
   17.1262   -8.1007  -12.6941 C   0  0  0  0  0  0  0  0  0  0  0  0
   18.3546   -8.0914  -12.4404 O   0  0  0  0  0  0  0  0  0  0  0  0
   14.0597   -5.0983   -7.1083 N   0  0  0  0  0  0  0  0  0  0  0  0
   16.6034   -7.0264  -13.4388 C   0  0  2  0  0  0  0  0  0  0  0  0
   17.4906   -5.9672  -13.8743 C   0  0  0  0  0  0  0  0  0  0  0  0
   17.7408   -6.1557  -15.3566 C   0  0  0  0  0  0  0  0  0  0  0  0
   18.5039   -5.0548  -15.9796 O   0  0  0  0  0  0  0  0  0  0  0  0
   18.9658   -4.1314  -15.2417 C   0  0  0  0  0  0  0  0  0  0  0  0
   16.7891   -4.6946  -13.5997 O   0  0  0  0  0  0  0  0  0  0  0  0
   17.4247   -3.5028  -13.3484 O   0  0  0  0  0  0  0  0  0  0  0  0
   18.7707   -4.9280  -17.3306 O   0  0  0  0  0  0  0  0  0  0  0  0
  2  1  1  6
  3  2  1  0
  4  3  1  0
  5  2  1  0
  5  6  2  0
  7  8  1  0
  8  9  2  0
  8 10  1  0
 10 11  1  0
 11 12  1  0
 12 13  1  0
 14 13  1  1
 14 15  1  0
 15  5  1  0
 16 14  1  0
 17 16  2  0
 18 16  1  0
 19 18  1  0
 19 20  1  6
 20 21  1  0
 21 25  1  0
 22 21  2  0
 23 19  1  0
 24 23  1  0
 26 23  2  0
M  END
$$$$
