CRD.pdb
     RDKit          3D

 26 25  0  0  1  0  0  0  0  0999 V2000
   26.5784  -14.2821  -17.4172 N   0  0  0  0  0  0  0  0  0  0  0  0
   25.8068  -14.6099  -16.2310 C   0  0  1  0  0  0  0  0  0  0  0  0
   24.6942  -13.5739  -16.1289 C   0  0  0  0  0  0  0  0  0  0  0  0
   25.3310  -12.1504  -15.1929 S   0  0  0  0  0  0  0  0  0  0  0  0
   25.1845  -15.9483  -16.4272 C   0  0  0  0  0  0  0  0  0  0  0  0
   24.4714  -16.1980  -17.4375 O   0  0  0  0  0  0  0  0  0  0  0  0
   27.2147  -20.6915  -10.7828 N   0  0  0  0  0  0  0  0  0  0  0  0
   26.5460  -21.5650  -11.6896 C   0  0  0  0  0  0  0  0  0  0  0  0
   25.7750  -22.5182  -11.3040 N   0  0  0  0  0  0  0  0  0  0  0  0
   26.7374  -21.3825  -13.0851 N   0  0  0  0  0  0  0  0  0  0  0  0
   27.3273  -20.1724  -13.5784 C   0  0  0  0  0  0  0  0  0  0  0  0
   26.2963  -19.1105  -13.9119 C   0  0  0  0  0  0  0  0  0  0  0  0
   25.7615  -19.3283  -15.2942 C   0  0  0  0  0  0  0  0  0  0  0  0
   24.7538  -18.3332  -15.7574 C   0  0  2  0  0  0  0  0  0  0  0  0
   25.3573  -17.0102  -15.4962 N   0  0  0  0  0  0  0  0  0  0  0  0
   23.4740  -18.4018  -15.0388 C   0  0  0  0  0  0  0  0  0  0  0  0
   23.3884  -18.0275  -13.8447 O   0  0  0  0  0  0  0  0  0  0  0  0
   25.3338  -23.1324  -12.0371 N   0  0  0  0  0  0  0  0  0  0  0  0
   22.3061  -18.8856  -15.6586 C   0  0  1  0  0  0  0  0  0  0  0  0
   21.0598  -18.8866  -14.9201 C   0  0  0  0  0  0  0  0  0  0  0  0
   19.9735  -18.3827  -15.8484 C   0  0  0  0  0  0  0  0  0  0  0  0
   18.7628  -17.9056  -15.1494 O   0  0  0  0  0  0  0  0  0  0  0  0
   18.7699  -17.8380  -13.8821 C   0  0  0  0  0  0  0  0  0  0  0  0
   20.8173  -20.2868  -14.5105 O   0  0  0  0  0  0  0  0  0  0  0  0
   21.6234  -21.3428  -14.8607 O   0  0  0  0  0  0  0  0  0  0  0  0
   17.5853  -17.5148  -15.7606 O   0  0  0  0  0  0  0  0  0  0  0  0
  2  1  1  6
  3  2  1  0
  4  3  1  0
  5  2  1  0
  5  6  2  0
  7  8  1  0
  8  9  2  0
  8 10  1  0
 10 11  1  0
 11 12  1  0
 12 13  1  0
 14 13  1  1
 14 15  1  0
 15  5  1  0
 16 14  1  0
 17 16  2  0
 18 16  1  0
 19 18  1  0
 19 20  1  6
 20 21  1  0
 21 25  1  0
 22 21  2  0
 23 19  1  0
 24 23  1  0
 26 23  2  0
M  END
$$$$
