CRD.pdb
     RDKit          3D

 26 25  0  0  1  0  0  0  0  0999 V2000
   27.1373  -14.2169  -17.1103 N   0  0  0  0  0  0  0  0  0  0  0  0
   26.1709  -14.4470  -16.0506 C   0  0  1  0  0  0  0  0  0  0  0  0
   25.0395  -13.4485  -16.2617 C   0  0  0  0  0  0  0  0  0  0  0  0
   25.3554  -12.0037  -15.2028 S   0  0  0  0  0  0  0  0  0  0  0  0
   25.6184  -15.8210  -16.2054 C   0  0  0  0  0  0  0  0  0  0  0  0
   25.3688  -16.3029  -17.3443 O   0  0  0  0  0  0  0  0  0  0  0  0
   26.6751  -20.5524  -10.6858 N   0  0  0  0  0  0  0  0  0  0  0  0
   26.2181  -21.3867  -11.7477 C   0  0  0  0  0  0  0  0  0  0  0  0
   25.3835  -22.3483  -11.5733 N   0  0  0  0  0  0  0  0  0  0  0  0
   26.7048  -21.1534  -13.0614 N   0  0  0  0  0  0  0  0  0  0  0  0
   27.5002  -19.9932  -13.3388 C   0  0  0  0  0  0  0  0  0  0  0  0
   26.9492  -19.1641  -14.4838 C   0  0  0  0  0  0  0  0  0  0  0  0
   25.5009  -18.8614  -14.2499 C   0  0  0  0  0  0  0  0  0  0  0  0
   24.8403  -18.0327  -15.2974 C   0  0  2  0  0  0  0  0  0  0  0  0
   25.3437  -16.6594  -15.0892 N   0  0  0  0  0  0  0  0  0  0  0  0
   23.3746  -18.0024  -15.1974 C   0  0  0  0  0  0  0  0  0  0  0  0
   22.8002  -17.1787  -14.4458 O   0  0  0  0  0  0  0  0  0  0  0  0
   25.0681  -22.8959  -12.4158 N   0  0  0  0  0  0  0  0  0  0  0  0
   22.5674  -18.8890  -15.9353 C   0  0  2  0  0  0  0  0  0  0  0  0
   21.1314  -18.8656  -15.7453 C   0  0  0  0  0  0  0  0  0  0  0  0
   20.4851  -18.8577  -17.1156 C   0  0  0  0  0  0  0  0  0  0  0  0
   19.0097  -18.9235  -17.0820 O   0  0  0  0  0  0  0  0  0  0  0  0
   18.3680  -18.0309  -16.4481 C   0  0  0  0  0  0  0  0  0  0  0  0
   20.7892  -20.0907  -14.9909 O   0  0  0  0  0  0  0  0  0  0  0  0
   19.6033  -20.2788  -14.3232 O   0  0  0  0  0  0  0  0  0  0  0  0
   18.2361  -19.8943  -17.6917 O   0  0  0  0  0  0  0  0  0  0  0  0
  2  1  1  6
  3  2  1  0
  4  3  1  0
  5  2  1  0
  5  6  2  0
  7  8  1  0
  8  9  2  0
  8 10  1  0
 10 11  1  0
 11 12  1  0
 12 13  1  0
 14 13  1  1
 14 15  1  0
 15  5  1  0
 16 14  1  0
 17 16  2  0
 18 16  1  0
 19 18  1  0
 19 20  1  6
 20 21  1  0
 21 25  1  0
 22 21  2  0
 23 19  1  0
 24 23  1  0
 26 23  2  0
M  END
$$$$
