CRD.pdb
     RDKit          3D

 26 25  0  0  1  0  0  0  0  0999 V2000
   26.5292  -19.4393   -8.0292 N   0  0  0  0  0  0  0  0  0  0  0  0
   25.9986  -20.6323   -8.6657 C   0  0  1  0  0  0  0  0  0  0  0  0
   24.7981  -21.0759   -7.8388 C   0  0  0  0  0  0  0  0  0  0  0  0
   25.4062  -21.6600   -6.2272 S   0  0  0  0  0  0  0  0  0  0  0  0
   25.5204  -20.2679  -10.0280 C   0  0  0  0  0  0  0  0  0  0  0  0
   24.7044  -19.3224  -10.2054 O   0  0  0  0  0  0  0  0  0  0  0  0
   28.9209  -18.4706  -17.0965 N   0  0  0  0  0  0  0  0  0  0  0  0
   27.5620  -18.2536  -17.4693 C   0  0  0  0  0  0  0  0  0  0  0  0
   27.2144  -17.8192  -18.6277 N   0  0  0  0  0  0  0  0  0  0  0  0
   26.5391  -18.5247  -16.5219 N   0  0  0  0  0  0  0  0  0  0  0  0
   26.8810  -18.9243  -15.1881 C   0  0  0  0  0  0  0  0  0  0  0  0
   26.4332  -20.3377  -14.8660 C   0  0  0  0  0  0  0  0  0  0  0  0
   26.6784  -20.6383  -13.4191 C   0  0  0  0  0  0  0  0  0  0  0  0
   25.4888  -20.5257  -12.5289 C   0  0  2  0  0  0  0  0  0  0  0  0
   25.9526  -20.9584  -11.1945 N   0  0  0  0  0  0  0  0  0  0  0  0
   24.3651  -21.3862  -12.9235 C   0  0  0  0  0  0  0  0  0  0  0  0
   24.4466  -22.6339  -12.8220 O   0  0  0  0  0  0  0  0  0  0  0  0
   26.1883  -17.6875  -18.8254 N   0  0  0  0  0  0  0  0  0  0  0  0
   23.1653  -20.8472  -13.4254 C   0  0  2  0  0  0  0  0  0  0  0  0
   22.0609  -21.7348  -13.7278 C   0  0  0  0  0  0  0  0  0  0  0  0
   20.8780  -21.3022  -12.8857 C   0  0  0  0  0  0  0  0  0  0  0  0
   20.3018  -20.0022  -13.2861 O   0  0  0  0  0  0  0  0  0  0  0  0
   20.8358  -19.3603  -14.2417 C   0  0  0  0  0  0  0  0  0  0  0  0
   21.7841  -21.5810  -15.1724 O   0  0  0  0  0  0  0  0  0  0  0  0
   20.9003  -22.3635  -15.8753 O   0  0  0  0  0  0  0  0  0  0  0  0
   19.2039  -19.3975  -12.7016 O   0  0  0  0  0  0  0  0  0  0  0  0
  2  1  1  1
  3  2  1  0
  4  3  1  0
  5  2  1  0
  5  6  2  0
  7  8  1  0
  8  9  2  0
  8 10  1  0
 10 11  1  0
 11 12  1  0
 12 13  1  0
 14 13  1  6
 14 15  1  0
 15  5  1  0
 16 14  1  0
 17 16  2  0
 18 16  1  0
 19 18  1  0
 19 20  1  1
 20 21  1  0
 21 25  1  0
 22 21  2  0
 23 19  1  0
 24 23  1  0
 26 23  2  0
M  END
$$$$
