CRD.pdb
     RDKit          3D

 26 25  0  0  1  0  0  0  0  0999 V2000
   26.0433  -19.8131   -8.1591 N   0  0  0  0  0  0  0  0  0  0  0  0
   25.2418  -20.7628   -8.9110 C   0  0  1  0  0  0  0  0  0  0  0  0
   23.8228  -20.6727   -8.3633 C   0  0  0  0  0  0  0  0  0  0  0  0
   23.7842  -21.5145   -6.7515 S   0  0  0  0  0  0  0  0  0  0  0  0
   25.2213  -20.3381  -10.3381 C   0  0  0  0  0  0  0  0  0  0  0  0
   25.1695  -19.1191  -10.6586 O   0  0  0  0  0  0  0  0  0  0  0  0
   28.4201  -23.6248  -17.8556 N   0  0  0  0  0  0  0  0  0  0  0  0
   28.5556  -22.2064  -17.8084 C   0  0  0  0  0  0  0  0  0  0  0  0
   29.0413  -21.5165  -18.7778 N   0  0  0  0  0  0  0  0  0  0  0  0
   28.1399  -21.5161  -16.6388 N   0  0  0  0  0  0  0  0  0  0  0  0
   27.5016  -22.2290  -15.5710 C   0  0  0  0  0  0  0  0  0  0  0  0
   26.3072  -21.4866  -15.0014 C   0  0  0  0  0  0  0  0  0  0  0  0
   26.2841  -21.6165  -13.5093 C   0  0  0  0  0  0  0  0  0  0  0  0
   25.2523  -20.8006  -12.8092 C   0  0  2  0  0  0  0  0  0  0  0  0
   25.2588  -21.2734  -11.4095 N   0  0  0  0  0  0  0  0  0  0  0  0
   23.8940  -20.9714  -13.3430 C   0  0  0  0  0  0  0  0  0  0  0  0
   23.2440  -22.0205  -13.1183 O   0  0  0  0  0  0  0  0  0  0  0  0
   29.0123  -20.4661  -18.7080 N   0  0  0  0  0  0  0  0  0  0  0  0
   23.2766  -19.9725  -14.1196 C   0  0  2  0  0  0  0  0  0  0  0  0
   21.9257  -20.1811  -14.5996 C   0  0  0  0  0  0  0  0  0  0  0  0
   21.1069  -18.9658  -14.2147 C   0  0  0  0  0  0  0  0  0  0  0  0
   19.7367  -18.9680  -14.7668 O   0  0  0  0  0  0  0  0  0  0  0  0
   19.0151  -20.0014  -14.6190 C   0  0  0  0  0  0  0  0  0  0  0  0
   22.0216  -20.3282  -16.0680 O   0  0  0  0  0  0  0  0  0  0  0  0
   21.0993  -20.9949  -16.8376 O   0  0  0  0  0  0  0  0  0  0  0  0
   19.1464  -17.9215  -15.4516 O   0  0  0  0  0  0  0  0  0  0  0  0
  2  1  1  1
  3  2  1  0
  4  3  1  0
  5  2  1  0
  5  6  2  0
  7  8  1  0
  8  9  2  0
  8 10  1  0
 10 11  1  0
 11 12  1  0
 12 13  1  0
 14 13  1  6
 14 15  1  0
 15  5  1  0
 16 14  1  0
 17 16  2  0
 18 16  1  0
 19 18  1  0
 19 20  1  6
 20 21  1  0
 21 25  1  0
 22 21  2  0
 23 19  1  0
 24 23  1  0
 26 23  2  0
M  END
$$$$
