CRD.pdb
     RDKit          3D

 26 25  0  0  1  0  0  0  0  0999 V2000
   22.2709  -11.9634  -17.6540 N   0  0  0  0  0  0  0  0  0  0  0  0
   22.4632  -11.1473  -16.4680 C   0  0  1  0  0  0  0  0  0  0  0  0
   23.9039  -10.6523  -16.5027 C   0  0  0  0  0  0  0  0  0  0  0  0
   24.2030   -9.6767  -14.9971 S   0  0  0  0  0  0  0  0  0  0  0  0
   21.5598   -9.9667  -16.5555 C   0  0  0  0  0  0  0  0  0  0  0  0
   21.4095   -9.3349  -17.6369 O   0  0  0  0  0  0  0  0  0  0  0  0
   14.2978  -11.4085  -13.5360 N   0  0  0  0  0  0  0  0  0  0  0  0
   14.6286  -11.8650  -14.8454 C   0  0  0  0  0  0  0  0  0  0  0  0
   13.8932  -12.6846  -15.5081 N   0  0  0  0  0  0  0  0  0  0  0  0
   15.8257  -11.4000  -15.4520 N   0  0  0  0  0  0  0  0  0  0  0  0
   16.5882  -10.3560  -14.8319 C   0  0  0  0  0  0  0  0  0  0  0  0
   17.8183   -9.9727  -15.6332 C   0  0  0  0  0  0  0  0  0  0  0  0
   18.5933   -8.9133  -14.9114 C   0  0  0  0  0  0  0  0  0  0  0  0
   19.8152   -8.4232  -15.6092 C   0  0  2  0  0  0  0  0  0  0  0  0
   20.8227   -9.4899  -15.4359 N   0  0  0  0  0  0  0  0  0  0  0  0
   20.3640   -7.1807  -15.0489 C   0  0  0  0  0  0  0  0  0  0  0  0
   20.9468   -7.1808  -13.9381 O   0  0  0  0  0  0  0  0  0  0  0  0
   14.2056  -12.9695  -16.4727 N   0  0  0  0  0  0  0  0  0  0  0  0
   20.2575   -5.9543  -15.7321 C   0  0  2  0  0  0  0  0  0  0  0  0
   20.8278   -4.7612  -15.1406 C   0  0  0  0  0  0  0  0  0  0  0  0
   22.0281   -4.3618  -15.9743 C   0  0  0  0  0  0  0  0  0  0  0  0
   22.5822   -3.0365  -15.6295 O   0  0  0  0  0  0  0  0  0  0  0  0
   22.1029   -2.4084  -14.6364 C   0  0  0  0  0  0  0  0  0  0  0  0
   19.7706   -3.7278  -15.1813 O   0  0  0  0  0  0  0  0  0  0  0  0
   18.5802   -3.8691  -15.8524 O   0  0  0  0  0  0  0  0  0  0  0  0
   23.6030   -2.3934  -16.3055 O   0  0  0  0  0  0  0  0  0  0  0  0
  2  1  1  6
  3  2  1  0
  4  3  1  0
  5  2  1  0
  5  6  2  0
  7  8  1  0
  8  9  2  0
  8 10  1  0
 10 11  1  0
 11 12  1  0
 12 13  1  0
 14 13  1  1
 14 15  1  0
 15  5  1  0
 16 14  1  0
 17 16  2  0
 18 16  1  0
 19 18  1  0
 19 20  1  6
 20 21  1  0
 21 25  1  0
 22 21  2  0
 23 19  1  0
 24 23  1  0
 26 23  2  0
M  END
$$$$
