CRD.pdb
     RDKit          3D

 26 25  0  0  1  0  0  0  0  0999 V2000
   15.7391  -12.1335  -14.0917 N   0  0  0  0  0  0  0  0  0  0  0  0
   15.9758  -11.1420  -15.1263 C   0  0  1  0  0  0  0  0  0  0  0  0
   15.1754   -9.9039  -14.7415 C   0  0  0  0  0  0  0  0  0  0  0  0
   13.4327  -10.2019  -15.1686 S   0  0  0  0  0  0  0  0  0  0  0  0
   17.4218  -10.7865  -15.1179 C   0  0  0  0  0  0  0  0  0  0  0  0
   18.0786  -10.7371  -14.0420 O   0  0  0  0  0  0  0  0  0  0  0  0
   23.0463  -12.6055  -21.3860 N   0  0  0  0  0  0  0  0  0  0  0  0
   23.9433  -12.1184  -20.3906 C   0  0  0  0  0  0  0  0  0  0  0  0
   25.2214  -12.1881  -20.5051 N   0  0  0  0  0  0  0  0  0  0  0  0
   23.4082  -11.5301  -19.2138 N   0  0  0  0  0  0  0  0  0  0  0  0
   21.9886  -11.4592  -19.0261 C   0  0  0  0  0  0  0  0  0  0  0  0
   21.6033  -10.8894  -17.6737 C   0  0  0  0  0  0  0  0  0  0  0  0
   20.1137  -10.7672  -17.5720 C   0  0  0  0  0  0  0  0  0  0  0  0
   19.5976  -10.2682  -16.2663 C   0  0  2  0  0  0  0  0  0  0  0  0
   18.1370  -10.4859  -16.3106 N   0  0  0  0  0  0  0  0  0  0  0  0
   19.8397   -8.8371  -16.0371 C   0  0  0  0  0  0  0  0  0  0  0  0
   19.0900   -7.9703  -16.5470 O   0  0  0  0  0  0  0  0  0  0  0  0
   25.8152  -11.8081  -19.7227 N   0  0  0  0  0  0  0  0  0  0  0  0
   20.9128   -8.3894  -15.2432 C   0  0  2  0  0  0  0  0  0  0  0  0
   21.1359   -6.9662  -15.0899 C   0  0  0  0  0  0  0  0  0  0  0  0
   21.6884   -6.7335  -13.6985 C   0  0  0  0  0  0  0  0  0  0  0  0
   22.0091   -5.3205  -13.4105 O   0  0  0  0  0  0  0  0  0  0  0  0
   23.1592   -4.8766  -13.7116 C   0  0  0  0  0  0  0  0  0  0  0  0
   22.1112   -6.5810  -16.1327 O   0  0  0  0  0  0  0  0  0  0  0  0
   22.1069   -5.3705  -16.7825 O   0  0  0  0  0  0  0  0  0  0  0  0
   21.1518   -4.4067  -12.8250 O   0  0  0  0  0  0  0  0  0  0  0  0
  2  1  1  1
  3  2  1  0
  4  3  1  0
  5  2  1  0
  5  6  2  0
  7  8  1  0
  8  9  2  0
  8 10  1  0
 10 11  1  0
 11 12  1  0
 12 13  1  0
 14 13  1  6
 14 15  1  0
 15  5  1  0
 16 14  1  0
 17 16  2  0
 18 16  1  0
 19 18  1  0
 19 20  1  1
 20 21  1  0
 21 25  1  0
 22 21  2  0
 23 19  1  0
 24 23  1  0
 26 23  2  0
M  END
$$$$
