MNG.pdb
     RDKit          3D

 21 20  0  0  1  0  0  0  0  0999 V2000
    6.7810  -11.3661   26.9074 C   0  0  0  0  0  0  0  0  0  0  0  0
    7.1546  -13.1485   26.8665 S   0  0  0  0  0  0  0  0  0  0  0  0
    6.2197  -13.8757   25.5137 C   0  0  0  0  0  0  0  0  0  0  0  0
    6.2315  -15.3856   25.5642 C   0  0  0  0  0  0  0  0  0  0  0  0
    7.5425  -15.9509   25.1073 C   0  0  2  0  0  0  0  0  0  0  0  0
    8.6863  -15.4696   25.8435 N   0  0  0  0  0  0  0  0  0  0  0  0
    7.7285  -15.6942   23.6472 C   0  0  0  0  0  0  0  0  0  0  0  0
    6.9356  -16.2165   22.8417 O   0  0  0  0  0  0  0  0  0  0  0  0
    8.0723  -12.3919   19.0417 N   0  0  0  0  0  0  0  0  0  0  0  0
    8.0414  -13.5455   19.8381 C   0  0  0  0  0  0  0  0  0  0  0  0
    7.5478  -14.5959   19.3720 O   0  0  0  0  0  0  0  0  0  0  0  0
    8.5780  -13.5242   21.1949 C   0  0  0  0  0  0  0  0  0  0  0  0
    9.0979  -14.8353   21.7240 C   0  0  2  0  0  0  0  0  0  0  0  0
    8.7653  -14.8865   23.1667 N   0  0  0  0  0  0  0  0  0  0  0  0
   10.5325  -15.0525   21.5755 C   0  0  0  0  0  0  0  0  0  0  0  0
   11.3236  -14.5860   22.4314 O   0  0  0  0  0  0  0  0  0  0  0  0
   11.0876  -15.7804   20.4931 N   0  0  0  0  0  0  0  0  0  0  0  0
   12.5187  -15.9918   20.4260 C   0  0  0  0  0  0  0  0  0  0  0  0
   12.8323  -16.8102   19.2424 C   0  0  0  0  0  0  0  0  0  0  0  0
   14.1508  -16.8951   18.7908 O   0  0  0  0  0  0  0  0  0  0  0  0
   11.9374  -17.4208   18.6479 O   0  0  0  0  0  0  0  0  0  0  0  0
  2  1  1  0
  3  2  1  0
  4  5  1  0
  4  3  1  0
  5  6  1  1
  7  8  2  0
  7  5  1  0
  9 10  1  0
 10 11  2  0
 10 12  1  0
 13 12  1  1
 13 15  1  0
 13 14  1  0
 14  7  1  0
 15 17  1  0
 16 15  2  0
 17 18  1  0
 19 20  1  0
 19 18  1  0
 21 19  2  0
M  END
$$$$
