MNG.pdb
     RDKit          3D

 21 20  0  0  1  0  0  0  0  0999 V2000
    6.5511  -10.9589   27.6117 C   0  0  0  0  0  0  0  0  0  0  0  0
    6.9632  -12.1051   26.2572 S   0  0  0  0  0  0  0  0  0  0  0  0
    6.0075  -13.6088   26.4990 C   0  0  0  0  0  0  0  0  0  0  0  0
    6.2374  -14.6104   25.3916 C   0  0  0  0  0  0  0  0  0  0  0  0
    7.6438  -15.1294   25.3889 C   0  0  2  0  0  0  0  0  0  0  0  0
    8.6519  -14.1153   25.5823 N   0  0  0  0  0  0  0  0  0  0  0  0
    7.9089  -15.8802   24.1246 C   0  0  0  0  0  0  0  0  0  0  0  0
    7.1787  -16.8473   23.8383 O   0  0  0  0  0  0  0  0  0  0  0  0
    6.4924  -15.2840   20.7349 N   0  0  0  0  0  0  0  0  0  0  0  0
    7.7217  -14.6292   20.8964 C   0  0  0  0  0  0  0  0  0  0  0  0
    7.7353  -13.3909   21.0714 O   0  0  0  0  0  0  0  0  0  0  0  0
    8.9721  -15.3806   20.8612 C   0  0  0  0  0  0  0  0  0  0  0  0
    9.2283  -16.2984   22.0279 C   0  0  2  0  0  0  0  0  0  0  0  0
    8.9509  -15.5251   23.2608 N   0  0  0  0  0  0  0  0  0  0  0  0
   10.5789  -16.8412   22.1204 C   0  0  0  0  0  0  0  0  0  0  0  0
   11.0840  -17.4232   21.1294 O   0  0  0  0  0  0  0  0  0  0  0  0
   11.3648  -16.7396   23.2958 N   0  0  0  0  0  0  0  0  0  0  0  0
   12.6882  -17.3268   23.3301 C   0  0  0  0  0  0  0  0  0  0  0  0
   12.7692  -18.2723   24.4565 C   0  0  0  0  0  0  0  0  0  0  0  0
   14.0154  -18.7430   24.8751 O   0  0  0  0  0  0  0  0  0  0  0  0
   11.7432  -18.6507   25.0320 O   0  0  0  0  0  0  0  0  0  0  0  0
  2  1  1  0
  3  2  1  0
  4  5  1  0
  4  3  1  0
  5  6  1  6
  7  8  2  0
  7  5  1  0
  9 10  1  0
 10 11  2  0
 10 12  1  0
 13 12  1  6
 13 15  1  0
 13 14  1  0
 14  7  1  0
 15 17  1  0
 16 15  2  0
 17 18  1  0
 19 20  1  0
 19 18  1  0
 21 19  2  0
M  END
$$$$
