MNG.pdb
     RDKit          3D

 21 20  0  0  1  0  0  0  0  0999 V2000
    5.5413  -11.2846   27.4453 C   0  0  0  0  0  0  0  0  0  0  0  0
    6.9975  -11.9062   26.5446 S   0  0  0  0  0  0  0  0  0  0  0  0
    6.4663  -13.2918   25.5294 C   0  0  0  0  0  0  0  0  0  0  0  0
    7.4864  -14.4061   25.5133 C   0  0  0  0  0  0  0  0  0  0  0  0
    7.0494  -15.5529   24.6525 C   0  0  2  0  0  0  0  0  0  0  0  0
    6.0070  -16.3663   25.2302 N   0  0  0  0  0  0  0  0  0  0  0  0
    8.2257  -16.4035   24.2988 C   0  0  0  0  0  0  0  0  0  0  0  0
    8.3502  -17.5126   24.8510 O   0  0  0  0  0  0  0  0  0  0  0  0
   11.7602  -17.7025   19.9235 N   0  0  0  0  0  0  0  0  0  0  0  0
   12.0097  -16.9993   21.1105 C   0  0  0  0  0  0  0  0  0  0  0  0
   13.1543  -17.0368   21.6132 O   0  0  0  0  0  0  0  0  0  0  0  0
   10.9488  -16.2316   21.7543 C   0  0  0  0  0  0  0  0  0  0  0  0
   10.2826  -16.8827   22.9381 C   0  0  2  0  0  0  0  0  0  0  0  0
    9.1842  -15.9865   23.3684 N   0  0  0  0  0  0  0  0  0  0  0  0
   11.1442  -17.1376   24.0870 C   0  0  0  0  0  0  0  0  0  0  0  0
   11.5437  -16.1768   24.7895 O   0  0  0  0  0  0  0  0  0  0  0  0
   11.5582  -18.4416   24.4579 N   0  0  0  0  0  0  0  0  0  0  0  0
   12.5308  -18.6144   25.5169 C   0  0  0  0  0  0  0  0  0  0  0  0
   11.8283  -18.9261   26.7732 C   0  0  0  0  0  0  0  0  0  0  0  0
   11.1809  -20.1551   26.9162 O   0  0  0  0  0  0  0  0  0  0  0  0
   11.8085  -18.1084   27.6995 O   0  0  0  0  0  0  0  0  0  0  0  0
  2  1  1  0
  3  2  1  0
  4  5  1  0
  4  3  1  0
  5  6  1  1
  7  8  2  0
  7  5  1  0
  9 10  1  0
 10 11  2  0
 10 12  1  0
 13 12  1  6
 13 15  1  0
 13 14  1  0
 14  7  1  0
 15 17  1  0
 16 15  2  0
 17 18  1  0
 19 20  1  0
 19 18  1  0
 21 19  2  0
M  END
$$$$
