MNG.pdb
     RDKit          3D

 21 20  0  0  1  0  0  0  0  0999 V2000
    7.3357  -12.1199   18.6299 C   0  0  0  0  0  0  0  0  0  0  0  0
    7.7629  -12.5748   20.3412 S   0  0  0  0  0  0  0  0  0  0  0  0
    7.0910  -14.2119   20.6593 C   0  0  0  0  0  0  0  0  0  0  0  0
    7.2569  -14.6216   22.1040 C   0  0  0  0  0  0  0  0  0  0  0  0
    6.7061  -15.9911   22.3646 C   0  0  2  0  0  0  0  0  0  0  0  0
    5.2757  -16.0964   22.2067 N   0  0  0  0  0  0  0  0  0  0  0  0
    7.1058  -16.4516   23.7287 C   0  0  0  0  0  0  0  0  0  0  0  0
    6.4451  -16.0620   24.7096 O   0  0  0  0  0  0  0  0  0  0  0  0
    6.2408  -19.0174   25.6273 N   0  0  0  0  0  0  0  0  0  0  0  0
    7.4151  -19.7571   25.4275 C   0  0  0  0  0  0  0  0  0  0  0  0
    7.3345  -20.9906   25.2368 O   0  0  0  0  0  0  0  0  0  0  0  0
    8.7173  -19.0988   25.4412 C   0  0  0  0  0  0  0  0  0  0  0  0
    8.7055  -17.6002   25.2885 C   0  0  2  0  0  0  0  0  0  0  0  0
    8.1973  -17.3040   23.9288 N   0  0  0  0  0  0  0  0  0  0  0  0
    9.9949  -16.9382   25.4511 C   0  0  0  0  0  0  0  0  0  0  0  0
   10.5015  -16.8367   26.5953 O   0  0  0  0  0  0  0  0  0  0  0  0
   10.7188  -16.3957   24.3598 N   0  0  0  0  0  0  0  0  0  0  0  0
   11.9356  -15.6490   24.6027 C   0  0  0  0  0  0  0  0  0  0  0  0
   13.0647  -16.3395   23.9566 C   0  0  0  0  0  0  0  0  0  0  0  0
   14.3354  -15.7615   23.9845 O   0  0  0  0  0  0  0  0  0  0  0  0
   12.8944  -17.4251   23.3911 O   0  0  0  0  0  0  0  0  0  0  0  0
  2  1  1  0
  3  2  1  0
  4  5  1  0
  4  3  1  0
  5  6  1  1
  7  8  2  0
  7  5  1  0
  9 10  1  0
 10 11  2  0
 10 12  1  0
 13 12  1  6
 13 15  1  0
 13 14  1  0
 14  7  1  0
 15 17  1  0
 16 15  2  0
 17 18  1  0
 19 20  1  0
 19 18  1  0
 21 19  2  0
M  END
$$$$
