MNG.pdb
     RDKit          3D

 21 20  0  0  1  0  0  0  0  0999 V2000
    7.3878  -10.7459   27.2621 C   0  0  0  0  0  0  0  0  0  0  0  0
    5.8391  -11.6726   27.0150 S   0  0  0  0  0  0  0  0  0  0  0  0
    6.2622  -13.4093   26.8209 C   0  0  0  0  0  0  0  0  0  0  0  0
    6.6520  -13.7420   25.3997 C   0  0  0  0  0  0  0  0  0  0  0  0
    7.2074  -15.1293   25.2815 C   0  0  2  0  0  0  0  0  0  0  0  0
    8.2789  -15.4211   26.2026 N   0  0  0  0  0  0  0  0  0  0  0  0
    7.6550  -15.3827   23.8787 C   0  0  0  0  0  0  0  0  0  0  0  0
    6.8222  -15.2870   22.9580 O   0  0  0  0  0  0  0  0  0  0  0  0
    6.9949  -13.4681   20.9649 N   0  0  0  0  0  0  0  0  0  0  0  0
    7.6225  -14.7218   20.9783 C   0  0  0  0  0  0  0  0  0  0  0  0
    6.9607  -15.7390   20.6753 O   0  0  0  0  0  0  0  0  0  0  0  0
    9.0309  -14.8420   21.3407 C   0  0  0  0  0  0  0  0  0  0  0  0
    9.3988  -16.0304   22.1901 C   0  0  2  0  0  0  0  0  0  0  0  0
    8.9785  -15.7226   23.5770 N   0  0  0  0  0  0  0  0  0  0  0  0
   10.8144  -16.3814   22.2066 C   0  0  0  0  0  0  0  0  0  0  0  0
   11.3767  -16.7462   21.1451 O   0  0  0  0  0  0  0  0  0  0  0  0
   11.6018  -16.3274   23.3841 N   0  0  0  0  0  0  0  0  0  0  0  0
   12.6314  -17.3210   23.6081 C   0  0  0  0  0  0  0  0  0  0  0  0
   13.9396  -16.7546   23.2381 C   0  0  0  0  0  0  0  0  0  0  0  0
   15.1107  -17.3902   23.6556 O   0  0  0  0  0  0  0  0  0  0  0  0
   14.0068  -15.7225   22.5619 O   0  0  0  0  0  0  0  0  0  0  0  0
  2  1  1  0
  3  2  1  0
  4  5  1  0
  4  3  1  0
  5  6  1  1
  7  8  2  0
  7  5  1  0
  9 10  1  0
 10 11  2  0
 10 12  1  0
 13 12  1  6
 13 15  1  0
 13 14  1  0
 14  7  1  0
 15 17  1  0
 16 15  2  0
 17 18  1  0
 19 20  1  0
 19 18  1  0
 21 19  2  0
M  END
$$$$
