AAV.pdb
     RDKit          3D

 18 17  0  0  1  0  0  0  0  0999 V2000
   17.9475  -14.7943  -15.5278 C   0  0  0  0  0  0  0  0  0  0  0  0
   17.9682  -13.6425  -16.5073 C   0  0  2  0  0  0  0  0  0  0  0  0
   18.6947  -14.0516  -17.6714 N   0  0  0  0  0  0  0  0  0  0  0  0
   18.4926  -12.3981  -15.9033 C   0  0  0  0  0  0  0  0  0  0  0  0
   17.8576  -11.8905  -14.9476 O   0  0  0  0  0  0  0  0  0  0  0  0
   21.6868  -10.3322  -16.0483 C   0  0  0  0  0  0  0  0  0  0  0  0
   20.2156  -10.5377  -15.8113 C   0  0  2  0  0  0  0  0  0  0  0  0
   19.6775  -11.7447  -16.3462 N   0  0  0  0  0  0  0  0  0  0  0  0
   19.5167   -9.3015  -16.3109 C   0  0  0  0  0  0  0  0  0  0  0  0
   19.2230   -9.2626  -17.5259 O   0  0  0  0  0  0  0  0  0  0  0  0
   16.2659   -7.9849  -15.3910 C   0  0  0  0  0  0  0  0  0  0  0  0
   17.2050   -6.8383  -15.1291 C   0  0  2  0  0  0  0  0  0  0  0  0
   16.5502   -5.5253  -15.4475 C   0  0  0  0  0  0  0  0  0  0  0  0
   18.4981   -7.0299  -15.9247 C   0  0  2  0  0  0  0  0  0  0  0  0
   19.1930   -8.2225  -15.4830 N   0  0  0  0  0  0  0  0  0  0  0  0
   19.3669   -5.8485  -15.5962 C   0  0  0  0  0  0  0  0  0  0  0  0
   20.1048   -5.8508  -14.5703 O   0  0  0  0  0  0  0  0  0  0  0  0
   19.3873   -4.7242  -16.4027 O   0  0  0  0  0  0  0  0  0  0  0  0
  2  1  1  1
  2  3  1  0
  4  2  1  0
  4  5  2  0
  7  6  1  6
  7  8  1  0
  8  4  1  0
  9  7  1  0
  9 15  1  0
 10  9  2  0
 12 11  1  6
 12 14  1  0
 13 12  1  0
 14 15  1  1
 14 16  1  0
 16 17  2  0
 16 18  1  0
M  END
$$$$
