AAV.pdb
     RDKit          3D

 18 17  0  0  1  0  0  0  0  0999 V2000
   16.6229  -13.5813  -16.9049 C   0  0  0  0  0  0  0  0  0  0  0  0
   15.9484  -13.4806  -15.5553 C   0  0  2  0  0  0  0  0  0  0  0  0
   14.7337  -14.2375  -15.5989 N   0  0  0  0  0  0  0  0  0  0  0  0
   15.7437  -12.0784  -15.1306 C   0  0  0  0  0  0  0  0  0  0  0  0
   15.1786  -11.2940  -15.9304 O   0  0  0  0  0  0  0  0  0  0  0  0
   16.3789   -9.9767  -11.9858 C   0  0  0  0  0  0  0  0  0  0  0  0
   16.0289  -10.2182  -13.4288 C   0  0  2  0  0  0  0  0  0  0  0  0
   16.1522  -11.5698  -13.8651 N   0  0  0  0  0  0  0  0  0  0  0  0
   16.8477   -9.2526  -14.2434 C   0  0  0  0  0  0  0  0  0  0  0  0
   17.9404   -9.6652  -14.6904 O   0  0  0  0  0  0  0  0  0  0  0  0
   15.9499   -7.5476  -17.3771 C   0  0  0  0  0  0  0  0  0  0  0  0
   16.3368   -6.4371  -16.4379 C   0  0  2  0  0  0  0  0  0  0  0  0
   17.0412   -5.3338  -17.1733 C   0  0  0  0  0  0  0  0  0  0  0  0
   17.1952   -6.9915  -15.2988 C   0  0  2  0  0  0  0  0  0  0  0  0
   16.4378   -7.9430  -14.5104 N   0  0  0  0  0  0  0  0  0  0  0  0
   17.5175   -5.8206  -14.4136 C   0  0  0  0  0  0  0  0  0  0  0  0
   16.7000   -5.4281  -13.5334 O   0  0  0  0  0  0  0  0  0  0  0  0
   18.7145   -5.1368  -14.5327 O   0  0  0  0  0  0  0  0  0  0  0  0
  2  1  1  6
  2  3  1  0
  4  2  1  0
  4  5  2  0
  7  6  1  1
  7  8  1  0
  8  4  1  0
  9  7  1  0
  9 15  1  0
 10  9  2  0
 12 11  1  6
 12 14  1  0
 13 12  1  0
 14 15  1  1
 14 16  1  0
 16 17  2  0
 16 18  1  0
M  END
$$$$
