AAV.pdb
     RDKit          3D

 18 17  0  0  1  0  0  0  0  0999 V2000
   15.6612  -12.4306  -16.6116 C   0  0  0  0  0  0  0  0  0  0  0  0
   16.6077  -12.6005  -17.7785 C   0  0  2  0  0  0  0  0  0  0  0  0
   16.8246  -14.0008  -17.9851 N   0  0  0  0  0  0  0  0  0  0  0  0
   17.8633  -11.8386  -17.6016 C   0  0  0  0  0  0  0  0  0  0  0  0
   18.8037  -12.3841  -16.9753 O   0  0  0  0  0  0  0  0  0  0  0  0
   19.2497   -8.4270  -18.6766 C   0  0  0  0  0  0  0  0  0  0  0  0
   19.2332   -9.7265  -17.9191 C   0  0  2  0  0  0  0  0  0  0  0  0
   18.0637  -10.5210  -18.1025 N   0  0  0  0  0  0  0  0  0  0  0  0
   19.5067   -9.3939  -16.4766 C   0  0  0  0  0  0  0  0  0  0  0  0
   18.5176   -9.1803  -15.7418 O   0  0  0  0  0  0  0  0  0  0  0  0
   23.5136   -9.5087  -14.8956 C   0  0  0  0  0  0  0  0  0  0  0  0
   22.2963   -9.8801  -14.0923 C   0  0  2  0  0  0  0  0  0  0  0  0
   22.0196  -11.3527  -14.1876 C   0  0  0  0  0  0  0  0  0  0  0  0
   21.0947   -9.0508  -14.5511 C   0  0  2  0  0  0  0  0  0  0  0  0
   20.7971   -9.3175  -15.9442 N   0  0  0  0  0  0  0  0  0  0  0  0
   21.5167   -7.6126  -14.4426 C   0  0  0  0  0  0  0  0  0  0  0  0
   21.5610   -7.0321  -13.3210 O   0  0  0  0  0  0  0  0  0  0  0  0
   21.8692   -6.8799  -15.5624 O   0  0  0  0  0  0  0  0  0  0  0  0
  2  1  1  1
  2  3  1  0
  4  2  1  0
  4  5  2  0
  7  6  1  6
  7  8  1  0
  8  4  1  0
  9  7  1  0
  9 15  1  0
 10  9  2  0
 12 11  1  6
 12 14  1  0
 13 12  1  0
 14 15  1  6
 14 16  1  0
 16 17  2  0
 16 18  1  0
M  END
$$$$
