AAV.pdb
     RDKit          3D

 18 17  0  0  1  0  0  0  0  0999 V2000
   17.7223  -14.4272  -19.1652 C   0  0  0  0  0  0  0  0  0  0  0  0
   17.3538  -13.4584  -18.0644 C   0  0  2  0  0  0  0  0  0  0  0  0
   16.0330  -12.9668  -18.3176 N   0  0  0  0  0  0  0  0  0  0  0  0
   18.3537  -12.3800  -17.9043 C   0  0  0  0  0  0  0  0  0  0  0  0
   19.4809  -12.6814  -17.4429 O   0  0  0  0  0  0  0  0  0  0  0  0
   18.6350   -8.6773  -18.8425 C   0  0  0  0  0  0  0  0  0  0  0  0
   19.0542   -9.9558  -18.1697 C   0  0  2  0  0  0  0  0  0  0  0  0
   18.1080  -11.0195  -18.2446 N   0  0  0  0  0  0  0  0  0  0  0  0
   19.4395   -9.5998  -16.7586 C   0  0  0  0  0  0  0  0  0  0  0  0
   18.5478   -9.6795  -15.8854 O   0  0  0  0  0  0  0  0  0  0  0  0
   22.4072  -11.1916  -15.1113 C   0  0  0  0  0  0  0  0  0  0  0  0
   22.5375   -9.7176  -14.8368 C   0  0  2  0  0  0  0  0  0  0  0  0
   23.0841   -9.4747  -13.4597 C   0  0  0  0  0  0  0  0  0  0  0  0
   21.1860   -9.0277  -15.0354 C   0  0  2  0  0  0  0  0  0  0  0  0
   20.7282   -9.1933  -16.4005 N   0  0  0  0  0  0  0  0  0  0  0  0
   21.4309   -7.5620  -14.8118 C   0  0  0  0  0  0  0  0  0  0  0  0
   21.8307   -6.8197  -15.7532 O   0  0  0  0  0  0  0  0  0  0  0  0
   21.2276   -6.9795  -13.5731 O   0  0  0  0  0  0  0  0  0  0  0  0
  2  1  1  6
  2  3  1  0
  4  2  1  0
  4  5  2  0
  7  6  1  1
  7  8  1  0
  8  4  1  0
  9  7  1  0
  9 15  1  0
 10  9  2  0
 12 11  1  1
 12 14  1  0
 13 12  1  0
 14 15  1  6
 14 16  1  0
 16 17  2  0
 16 18  1  0
M  END
$$$$
