AAV.pdb
     RDKit          3D

 18 17  0  0  1  0  0  0  0  0999 V2000
   19.4193  -15.1315  -17.6923 C   0  0  0  0  0  0  0  0  0  0  0  0
   20.3476  -14.5440  -18.7313 C   0  0  2  0  0  0  0  0  0  0  0  0
   21.3979  -15.4842  -18.9830 N   0  0  0  0  0  0  0  0  0  0  0  0
   20.8467  -13.2050  -18.3487 C   0  0  0  0  0  0  0  0  0  0  0  0
   21.8476  -13.1393  -17.5949 O   0  0  0  0  0  0  0  0  0  0  0  0
   19.9484   -9.5531  -19.1084 C   0  0  0  0  0  0  0  0  0  0  0  0
   20.6533  -10.6755  -18.3971 C   0  0  2  0  0  0  0  0  0  0  0  0
   20.2545  -11.9872  -18.7882 N   0  0  0  0  0  0  0  0  0  0  0  0
   20.4989  -10.4215  -16.9213 C   0  0  0  0  0  0  0  0  0  0  0  0
   19.5092  -10.9336  -16.3537 O   0  0  0  0  0  0  0  0  0  0  0  0
   23.7849   -9.3824  -14.5442 C   0  0  0  0  0  0  0  0  0  0  0  0
   22.5202  -10.0208  -14.0361 C   0  0  2  0  0  0  0  0  0  0  0  0
   22.5732  -11.5133  -14.1909 C   0  0  0  0  0  0  0  0  0  0  0  0
   21.3082   -9.4233  -14.7544 C   0  0  2  0  0  0  0  0  0  0  0  0
   21.4021   -9.6516  -16.1825 N   0  0  0  0  0  0  0  0  0  0  0  0
   21.3789   -7.9398  -14.5246 C   0  0  0  0  0  0  0  0  0  0  0  0
   21.0605   -7.4402  -13.4083 O   0  0  0  0  0  0  0  0  0  0  0  0
   21.7931   -7.0761  -15.5232 O   0  0  0  0  0  0  0  0  0  0  0  0
  2  1  1  1
  2  3  1  0
  4  2  1  0
  4  5  2  0
  7  6  1  6
  7  8  1  0
  8  4  1  0
  9  7  1  0
  9 15  1  0
 10  9  2  0
 12 11  1  6
 12 14  1  0
 13 12  1  0
 14 15  1  6
 14 16  1  0
 16 17  2  0
 16 18  1  0
M  END
$$$$
