AAV.pdb
     RDKit          3D

 18 17  0  0  1  0  0  0  0  0999 V2000
   19.7736  -11.6246  -19.0875 C   0  0  0  0  0  0  0  0  0  0  0  0
   20.4676  -11.4653  -17.7536 C   0  0  2  0  0  0  0  0  0  0  0  0
   19.9870  -12.4836  -16.8690 N   0  0  0  0  0  0  0  0  0  0  0  0
   20.3217  -10.1006  -17.2015 C   0  0  0  0  0  0  0  0  0  0  0  0
   20.8389   -9.1479  -17.8332 O   0  0  0  0  0  0  0  0  0  0  0  0
   18.1998   -8.4058  -14.5388 C   0  0  0  0  0  0  0  0  0  0  0  0
   19.3802   -8.5073  -15.4657 C   0  0  2  0  0  0  0  0  0  0  0  0
   19.6273   -9.8085  -15.9934 N   0  0  0  0  0  0  0  0  0  0  0  0
   20.5609   -7.9280  -14.7330 C   0  0  0  0  0  0  0  0  0  0  0  0
   21.2265   -8.7066  -14.0157 O   0  0  0  0  0  0  0  0  0  0  0  0
   22.3563   -4.5546  -16.3102 C   0  0  0  0  0  0  0  0  0  0  0  0
   23.0683   -5.5895  -15.4812 C   0  0  2  0  0  0  0  0  0  0  0  0
   23.4976   -6.7525  -16.3282 C   0  0  0  0  0  0  0  0  0  0  0  0
   22.1739   -6.0368  -14.3228 C   0  0  2  0  0  0  0  0  0  0  0  0
   20.9289   -6.5825  -14.8253 N   0  0  0  0  0  0  0  0  0  0  0  0
   21.8457   -4.7923  -13.5469 C   0  0  0  0  0  0  0  0  0  0  0  0
   20.7638   -4.1701  -13.7457 O   0  0  0  0  0  0  0  0  0  0  0  0
   22.7133   -4.2891  -12.5936 O   0  0  0  0  0  0  0  0  0  0  0  0
  2  1  1  6
  2  3  1  0
  4  2  1  0
  4  5  2  0
  7  6  1  1
  7  8  1  0
  8  4  1  0
  9  7  1  0
  9 15  1  0
 10  9  2  0
 12 11  1  6
 12 14  1  0
 13 12  1  0
 14 15  1  6
 14 16  1  0
 16 17  2  0
 16 18  1  0
M  END
$$$$
