AAV.pdb
     RDKit          3D

 18 17  0  0  1  0  0  0  0  0999 V2000
   16.7835  -15.0530  -15.2709 C   0  0  0  0  0  0  0  0  0  0  0  0
   17.0583  -14.6099  -16.6902 C   0  0  2  0  0  0  0  0  0  0  0  0
   17.6669  -15.6981  -17.3943 N   0  0  0  0  0  0  0  0  0  0  0  0
   17.8538  -13.3640  -16.7478 C   0  0  0  0  0  0  0  0  0  0  0  0
   19.1046  -13.4585  -16.7228 O   0  0  0  0  0  0  0  0  0  0  0  0
   17.1444   -9.6295  -17.2501 C   0  0  0  0  0  0  0  0  0  0  0  0
   17.9958  -10.8423  -16.9908 C   0  0  2  0  0  0  0  0  0  0  0  0
   17.2789  -12.0640  -16.8301 N   0  0  0  0  0  0  0  0  0  0  0  0
   18.8794  -10.5118  -15.8175 C   0  0  0  0  0  0  0  0  0  0  0  0
   18.4556  -10.8128  -14.6801 O   0  0  0  0  0  0  0  0  0  0  0  0
   22.5878  -11.3980  -15.6748 C   0  0  0  0  0  0  0  0  0  0  0  0
   22.4763   -9.9532  -15.2684 C   0  0  2  0  0  0  0  0  0  0  0  0
   23.4492   -9.6278  -14.1721 C   0  0  0  0  0  0  0  0  0  0  0  0
   21.0371   -9.6361  -14.8560 C   0  0  2  0  0  0  0  0  0  0  0  0
   20.1267   -9.8951  -15.9535 N   0  0  0  0  0  0  0  0  0  0  0  0
   21.0015   -8.1606  -14.5730 C   0  0  0  0  0  0  0  0  0  0  0  0
   20.8140   -7.3258  -15.5031 O   0  0  0  0  0  0  0  0  0  0  0  0
   21.1722   -7.6698  -13.2905 O   0  0  0  0  0  0  0  0  0  0  0  0
  2  1  1  1
  2  3  1  0
  4  2  1  0
  4  5  2  0
  7  6  1  1
  7  8  1  0
  8  4  1  0
  9  7  1  0
  9 15  1  0
 10  9  2  0
 12 11  1  1
 12 14  1  0
 13 12  1  0
 14 15  1  6
 14 16  1  0
 16 17  2  0
 16 18  1  0
M  END
$$$$
