QVW.pdb
     RDKit          3D

 31 32  0  0  1  0  0  0  0  0999 V2000
    6.5949  -14.3510   17.6699 N   0  0  0  0  0  0  0  0  0  0  0  0
    7.1955  -14.5968   16.3944 C   0  0  0  0  0  0  0  0  0  0  0  0
    6.5813  -14.2956   15.3506 O   0  0  0  0  0  0  0  0  0  0  0  0
    8.5370  -15.1985   16.3181 C   0  0  0  0  0  0  0  0  0  0  0  0
    9.1725  -15.5670   17.6002 C   0  0  0  0  0  0  0  0  0  0  0  0
   10.5208  -16.1788   17.6123 C   0  0  2  0  0  0  0  0  0  0  0  0
   10.3853  -17.4596   16.8457 N   0  0  0  0  0  0  0  0  0  0  0  0
   11.1051  -16.5294   18.8935 C   0  0  0  0  0  0  0  0  0  0  0  0
   11.0042  -17.7158   19.3303 O   0  0  0  0  0  0  0  0  0  0  0  0
   14.5316  -15.9426   19.9057 C   0  0  0  0  0  0  0  0  0  0  0  0
   13.7304  -15.4247   21.0939 C   0  0  1  0  0  0  0  0  0  0  0  0
   13.6155  -13.9366   20.9340 C   0  0  0  0  0  0  0  0  0  0  0  0
   12.3481  -16.0600   21.0278 C   0  0  2  0  0  0  0  0  0  0  0  0
   11.8177  -15.6249   19.7275 N   0  0  0  0  0  0  0  0  0  0  0  0
   11.4556  -15.5797   22.0697 C   0  0  0  0  0  0  0  0  0  0  0  0
   11.1907  -14.3575   22.1977 O   0  0  0  0  0  0  0  0  0  0  0  0
   10.8135  -16.4461   23.0228 N   0  0  0  0  0  0  0  0  0  0  0  0
    9.9345  -15.9629   24.0570 C   0  0  1  0  0  0  0  0  0  0  0  0
    8.5335  -15.6817   23.6255 C   0  0  0  0  0  0  0  0  0  0  0  0
    7.6248  -15.1573   24.6319 C   0  0  0  0  0  0  0  0  0  0  0  0
    6.6536  -15.8667   25.3038 C   0  0  0  0  0  0  0  0  0  0  0  0
    6.0159  -15.0245   26.1397 N   0  0  0  0  0  0  0  0  0  0  0  0
    6.5541  -13.7938   26.0208 C   0  0  0  0  0  0  0  0  0  0  0  0
    6.2995  -12.5876   26.6237 C   0  0  0  0  0  0  0  0  0  0  0  0
    6.9938  -11.4509   26.3408 C   0  0  0  0  0  0  0  0  0  0  0  0
    7.9945  -11.4944   25.4160 C   0  0  0  0  0  0  0  0  0  0  0  0
    8.2710  -12.6922   24.7954 C   0  0  0  0  0  0  0  0  0  0  0  0
    7.5724  -13.8577   25.0726 C   0  0  0  0  0  0  0  0  0  0  0  0
   10.0053  -16.8258   25.2534 C   0  0  0  0  0  0  0  0  0  0  0  0
   10.2054  -18.1849   25.1001 O   0  0  0  0  0  0  0  0  0  0  0  0
    9.8909  -16.3774   26.4162 O   0  0  0  0  0  0  0  0  0  0  0  0
  1  2  1  0
  2  4  1  0
  3  2  2  0
  4  5  1  0
  6  7  1  6
  6  5  1  0
  8  9  2  0
  8  6  1  0
 11 10  1  6
 11 13  1  0
 12 11  1  0
 13 14  1  6
 14  8  1  0
 15 13  1  0
 15 17  1  0
 16 15  2  0
 18 17  1  0
 18 29  1  0
 19 20  1  0
 18 19  1  6
 20 28  1  0
 21 22  1  0
 21 20  2  0
 22 23  1  0
 23 28  2  0
 23 24  1  0
 24 25  2  0
 25 26  1  0
 27 26  2  0
 28 27  1  0
 29 31  2  0
 29 30  1  0
M  END
$$$$
