QVW.pdb
     RDKit          3D

 31 32  0  0  1  0  0  0  0  0999 V2000
   16.4593  -15.2787   18.3158 N   0  0  0  0  0  0  0  0  0  0  0  0
   15.3689  -14.4323   17.9382 C   0  0  0  0  0  0  0  0  0  0  0  0
   15.5970  -13.3184   17.4238 O   0  0  0  0  0  0  0  0  0  0  0  0
   13.9830  -14.8805   18.1524 C   0  0  0  0  0  0  0  0  0  0  0  0
   13.8042  -16.2129   18.7658 C   0  0  0  0  0  0  0  0  0  0  0  0
   12.4500  -16.6867   19.1316 C   0  0  2  0  0  0  0  0  0  0  0  0
   11.6740  -16.7075   17.8495 N   0  0  0  0  0  0  0  0  0  0  0  0
   11.6734  -15.8936   20.0663 C   0  0  0  0  0  0  0  0  0  0  0  0
   12.2635  -15.1346   20.8935 O   0  0  0  0  0  0  0  0  0  0  0  0
    7.2927  -14.3121   21.7121 C   0  0  0  0  0  0  0  0  0  0  0  0
    8.1255  -15.0035   20.6396 C   0  0  1  0  0  0  0  0  0  0  0  0
    8.0985  -14.1234   19.4239 C   0  0  0  0  0  0  0  0  0  0  0  0
    9.5502  -15.1153   21.1653 C   0  0  2  0  0  0  0  0  0  0  0  0
   10.2529  -15.8860   20.1292 N   0  0  0  0  0  0  0  0  0  0  0  0
    9.6343  -15.8491   22.4171 C   0  0  0  0  0  0  0  0  0  0  0  0
   10.0680  -17.0282   22.4610 O   0  0  0  0  0  0  0  0  0  0  0  0
    9.2359  -15.2981   23.6855 N   0  0  0  0  0  0  0  0  0  0  0  0
    9.6223  -15.8731   24.9487 C   0  0  1  0  0  0  0  0  0  0  0  0
    9.3927  -15.0070   26.1425 C   0  0  0  0  0  0  0  0  0  0  0  0
    8.0413  -14.5126   26.3501 C   0  0  0  0  0  0  0  0  0  0  0  0
    6.8810  -15.2512   26.2722 C   0  0  0  0  0  0  0  0  0  0  0  0
    5.8399  -14.4311   26.5135 N   0  0  0  0  0  0  0  0  0  0  0  0
    6.3037  -13.1861   26.7444 C   0  0  0  0  0  0  0  0  0  0  0  0
    5.6982  -11.9907   27.0404 C   0  0  0  0  0  0  0  0  0  0  0  0
    6.3888  -10.8347   27.2427 C   0  0  0  0  0  0  0  0  0  0  0  0
    7.7488  -10.8464   27.1507 C   0  0  0  0  0  0  0  0  0  0  0  0
    8.3823  -12.0327   26.8546 C   0  0  0  0  0  0  0  0  0  0  0  0
    7.6928  -13.2176   26.6456 C   0  0  0  0  0  0  0  0  0  0  0  0
    9.0573  -17.2287   25.1047 C   0  0  0  0  0  0  0  0  0  0  0  0
    8.0246  -17.6334   24.2797 O   0  0  0  0  0  0  0  0  0  0  0  0
    9.4758  -18.0395   25.9612 O   0  0  0  0  0  0  0  0  0  0  0  0
  1  2  1  0
  2  4  1  0
  3  2  2  0
  4  5  1  0
  6  7  1  6
  6  5  1  0
  8  9  2  0
  8  6  1  0
 11 10  1  1
 11 13  1  0
 12 11  1  0
 13 14  1  6
 14  8  1  0
 15 13  1  0
 15 17  1  0
 16 15  2  0
 18 17  1  0
 18 29  1  0
 19 20  1  0
 18 19  1  1
 20 28  1  0
 21 22  1  0
 21 20  2  0
 22 23  1  0
 23 28  2  0
 23 24  1  0
 24 25  2  0
 25 26  1  0
 27 26  2  0
 28 27  1  0
 29 31  2  0
 29 30  1  0
M  END
$$$$
