QVW.pdb
     RDKit          3D

 31 32  0  0  1  0  0  0  0  0999 V2000
    7.9809  -20.4890   22.7746 N   0  0  0  0  0  0  0  0  0  0  0  0
    8.6121  -21.0392   21.6141 C   0  0  0  0  0  0  0  0  0  0  0  0
    9.2645  -22.0991   21.7058 O   0  0  0  0  0  0  0  0  0  0  0  0
    8.4851  -20.3566   20.3159 C   0  0  0  0  0  0  0  0  0  0  0  0
    7.6524  -19.1363   20.2868 C   0  0  0  0  0  0  0  0  0  0  0  0
    7.9685  -18.0434   19.3393 C   0  0  2  0  0  0  0  0  0  0  0  0
    8.7399  -18.6887   18.2280 N   0  0  0  0  0  0  0  0  0  0  0  0
    8.7805  -16.9374   19.8116 C   0  0  0  0  0  0  0  0  0  0  0  0
   10.0365  -16.9560   19.6368 O   0  0  0  0  0  0  0  0  0  0  0  0
    6.9770  -13.8351   20.0947 C   0  0  0  0  0  0  0  0  0  0  0  0
    8.2517  -13.4557   20.8384 C   0  0  1  0  0  0  0  0  0  0  0  0
    7.8550  -13.0999   22.2417 C   0  0  0  0  0  0  0  0  0  0  0  0
    9.1574  -14.6797   20.8519 C   0  0  2  0  0  0  0  0  0  0  0  0
    8.2676  -15.7857   20.4690 N   0  0  0  0  0  0  0  0  0  0  0  0
    9.7012  -14.9654   22.1692 C   0  0  0  0  0  0  0  0  0  0  0  0
   10.5224  -14.1921   22.7242 O   0  0  0  0  0  0  0  0  0  0  0  0
    9.3518  -16.1341   22.9330 N   0  0  0  0  0  0  0  0  0  0  0  0
    9.8238  -16.3669   24.2741 C   0  0  1  0  0  0  0  0  0  0  0  0
    9.5333  -15.2775   25.2522 C   0  0  0  0  0  0  0  0  0  0  0  0
    8.1359  -14.9424   25.4726 C   0  0  0  0  0  0  0  0  0  0  0  0
    7.0547  -15.7687   25.2579 C   0  0  0  0  0  0  0  0  0  0  0  0
    5.9336  -15.0878   25.5649 N   0  0  0  0  0  0  0  0  0  0  0  0
    6.2691  -13.8464   25.9711 C   0  0  0  0  0  0  0  0  0  0  0  0
    5.5438  -12.7619   26.3966 C   0  0  0  0  0  0  0  0  0  0  0  0
    6.1142  -11.5836   26.7712 C   0  0  0  0  0  0  0  0  0  0  0  0
    7.4708  -11.4568   26.7281 C   0  0  0  0  0  0  0  0  0  0  0  0
    8.2230  -12.5297   26.3047 C   0  0  0  0  0  0  0  0  0  0  0  0
    7.6566  -13.7356   25.9197 C   0  0  0  0  0  0  0  0  0  0  0  0
    9.4047  -17.6987   24.7557 C   0  0  0  0  0  0  0  0  0  0  0  0
    8.6280  -18.5021   23.9420 O   0  0  0  0  0  0  0  0  0  0  0  0
    9.7246  -18.1399   25.8824 O   0  0  0  0  0  0  0  0  0  0  0  0
  1  2  1  0
  2  4  1  0
  3  2  2  0
  4  5  1  0
  6  7  1  6
  6  5  1  0
  8  9  2  0
  8  6  1  0
 11 10  1  6
 11 13  1  0
 12 11  1  0
 13 14  1  1
 14  8  1  0
 15 13  1  0
 15 17  1  0
 16 15  2  0
 18 17  1  0
 18 29  1  0
 19 20  1  0
 18 19  1  1
 20 28  1  0
 21 22  1  0
 21 20  2  0
 22 23  1  0
 23 28  2  0
 23 24  1  0
 24 25  2  0
 25 26  1  0
 27 26  2  0
 28 27  1  0
 29 31  2  0
 29 30  1  0
M  END
$$$$
