QVW.pdb
     RDKit          3D

 31 32  0  0  1  0  0  0  0  0999 V2000
   13.0942  -18.8236   17.8573 N   0  0  0  0  0  0  0  0  0  0  0  0
   11.9709  -19.4272   17.2079 C   0  0  0  0  0  0  0  0  0  0  0  0
   12.0790  -19.8372   16.0341 O   0  0  0  0  0  0  0  0  0  0  0  0
   10.6944  -19.5675   17.9278 C   0  0  0  0  0  0  0  0  0  0  0  0
   10.6569  -19.0626   19.3160 C   0  0  0  0  0  0  0  0  0  0  0  0
    9.4400  -18.3949   19.8312 C   0  0  2  0  0  0  0  0  0  0  0  0
    8.4907  -18.3449   18.6724 N   0  0  0  0  0  0  0  0  0  0  0  0
    9.5577  -17.0343   20.3218 C   0  0  0  0  0  0  0  0  0  0  0  0
   10.5716  -16.3373   20.0140 O   0  0  0  0  0  0  0  0  0  0  0  0
    7.5671  -14.3923   19.5979 C   0  0  0  0  0  0  0  0  0  0  0  0
    7.6008  -14.2466   21.1143 C   0  0  1  0  0  0  0  0  0  0  0  0
    6.3420  -14.8683   21.6457 C   0  0  0  0  0  0  0  0  0  0  0  0
    8.8121  -15.0164   21.6230 C   0  0  2  0  0  0  0  0  0  0  0  0
    8.5916  -16.3874   21.1401 N   0  0  0  0  0  0  0  0  0  0  0  0
    8.8914  -15.0498   23.0739 C   0  0  0  0  0  0  0  0  0  0  0  0
    8.0408  -14.4672   23.7932 O   0  0  0  0  0  0  0  0  0  0  0  0
    9.9297  -15.7389   23.7940 N   0  0  0  0  0  0  0  0  0  0  0  0
   10.0108  -15.7557   25.2323 C   0  0  1  0  0  0  0  0  0  0  0  0
    8.7647  -16.1761   25.9381 C   0  0  0  0  0  0  0  0  0  0  0  0
    7.6894  -15.2009   26.0181 C   0  0  0  0  0  0  0  0  0  0  0  0
    6.3570  -15.4316   25.7551 C   0  0  0  0  0  0  0  0  0  0  0  0
    5.6852  -14.2766   25.9267 N   0  0  0  0  0  0  0  0  0  0  0  0
    6.5533  -13.3120   26.2933 C   0  0  0  0  0  0  0  0  0  0  0  0
    6.4158  -11.9804   26.5954 C   0  0  0  0  0  0  0  0  0  0  0  0
    7.4611  -11.1851   26.9544 C   0  0  0  0  0  0  0  0  0  0  0  0
    8.7129  -11.7206   27.0223 C   0  0  0  0  0  0  0  0  0  0  0  0
    8.8795  -13.0546   26.7240 C   0  0  0  0  0  0  0  0  0  0  0  0
    7.8249  -13.8769   26.3566 C   0  0  0  0  0  0  0  0  0  0  0  0
   11.2053  -16.4980   25.6833 C   0  0  0  0  0  0  0  0  0  0  0  0
   12.0531  -17.0560   24.7448 O   0  0  0  0  0  0  0  0  0  0  0  0
   11.4896  -16.6476   26.8928 O   0  0  0  0  0  0  0  0  0  0  0  0
  1  2  1  0
  2  4  1  0
  3  2  2  0
  4  5  1  0
  6  7  1  6
  6  5  1  0
  8  9  2  0
  8  6  1  0
 11 10  1  6
 11 13  1  0
 12 11  1  0
 13 14  1  1
 14  8  1  0
 15 13  1  0
 15 17  1  0
 16 15  2  0
 18 17  1  0
 18 29  1  0
 19 20  1  0
 18 19  1  1
 20 28  1  0
 21 22  1  0
 21 20  2  0
 22 23  1  0
 23 28  2  0
 23 24  1  0
 24 25  2  0
 25 26  1  0
 27 26  2  0
 28 27  1  0
 29 31  2  0
 29 30  1  0
M  END
$$$$
