QVW.pdb
     RDKit          3D

 31 32  0  0  1  0  0  0  0  0999 V2000
   10.1613  -20.6275   15.7362 N   0  0  0  0  0  0  0  0  0  0  0  0
    9.0826  -20.2797   16.6098 C   0  0  0  0  0  0  0  0  0  0  0  0
    8.1446  -21.0833   16.7884 O   0  0  0  0  0  0  0  0  0  0  0  0
    9.0857  -18.9786   17.2986 C   0  0  0  0  0  0  0  0  0  0  0  0
   10.0845  -18.7991   18.3726 C   0  0  0  0  0  0  0  0  0  0  0  0
    9.6434  -18.5342   19.7609 C   0  0  2  0  0  0  0  0  0  0  0  0
    8.1684  -18.8001   19.7691 N   0  0  0  0  0  0  0  0  0  0  0  0
    9.8203  -17.1966   20.2951 C   0  0  0  0  0  0  0  0  0  0  0  0
   10.9769  -16.6774   20.3280 O   0  0  0  0  0  0  0  0  0  0  0  0
    6.6383  -14.9089   21.8099 C   0  0  0  0  0  0  0  0  0  0  0  0
    7.6859  -14.2882   20.8939 C   0  0  1  0  0  0  0  0  0  0  0  0
    7.7864  -12.8356   21.2585 C   0  0  0  0  0  0  0  0  0  0  0  0
    9.0111  -14.9843   21.1737 C   0  0  2  0  0  0  0  0  0  0  0  0
    8.7660  -16.3832   20.7936 N   0  0  0  0  0  0  0  0  0  0  0  0
    9.3811  -14.9503   22.5788 C   0  0  0  0  0  0  0  0  0  0  0  0
    9.6683  -13.8721   23.1580 O   0  0  0  0  0  0  0  0  0  0  0  0
    9.4485  -16.1248   23.4079 N   0  0  0  0  0  0  0  0  0  0  0  0
    9.8376  -16.0870   24.7946 C   0  0  1  0  0  0  0  0  0  0  0  0
    8.7369  -16.3253   25.7742 C   0  0  0  0  0  0  0  0  0  0  0  0
    7.6202  -15.3946   25.7527 C   0  0  0  0  0  0  0  0  0  0  0  0
    6.3271  -15.6798   25.3728 C   0  0  0  0  0  0  0  0  0  0  0  0
    5.5964  -14.5529   25.4777 N   0  0  0  0  0  0  0  0  0  0  0  0
    6.3884  -13.5532   25.9157 C   0  0  0  0  0  0  0  0  0  0  0  0
    6.1705  -12.2279   26.1976 C   0  0  0  0  0  0  0  0  0  0  0  0
    7.1464  -11.3901   26.6446 C   0  0  0  0  0  0  0  0  0  0  0  0
    8.4077  -11.8741   26.8270 C   0  0  0  0  0  0  0  0  0  0  0  0
    8.6543  -13.2006   26.5514 C   0  0  0  0  0  0  0  0  0  0  0  0
    7.6711  -14.0657   26.0953 C   0  0  0  0  0  0  0  0  0  0  0  0
   11.0159  -16.9445   25.0340 C   0  0  0  0  0  0  0  0  0  0  0  0
   11.6088  -16.9513   26.2827 O   0  0  0  0  0  0  0  0  0  0  0  0
   11.5097  -17.6756   24.1464 O   0  0  0  0  0  0  0  0  0  0  0  0
  1  2  1  0
  2  4  1  0
  3  2  2  0
  4  5  1  0
  6  7  1  6
  6  5  1  0
  8  9  2  0
  8  6  1  0
 11 10  1  1
 11 13  1  0
 12 11  1  0
 13 14  1  1
 14  8  1  0
 15 13  1  0
 15 17  1  0
 16 15  2  0
 18 17  1  0
 18 29  1  0
 19 20  1  0
 18 19  1  1
 20 28  1  0
 21 22  1  0
 21 20  2  0
 22 23  1  0
 23 28  2  0
 23 24  1  0
 24 25  2  0
 25 26  1  0
 27 26  2  0
 28 27  1  0
 29 31  2  0
 29 30  1  0
M  END
$$$$
