QVW.pdb
     RDKit          3D

 31 32  0  0  1  0  0  0  0  0999 V2000
   13.7301  -18.5690   16.1987 N   0  0  0  0  0  0  0  0  0  0  0  0
   12.4876  -18.9625   15.6078 C   0  0  0  0  0  0  0  0  0  0  0  0
   12.4564  -19.9190   14.8069 O   0  0  0  0  0  0  0  0  0  0  0  0
   11.2504  -18.2417   15.9506 C   0  0  0  0  0  0  0  0  0  0  0  0
   11.3037  -17.3584   17.1340 C   0  0  0  0  0  0  0  0  0  0  0  0
   10.8135  -17.8420   18.4447 C   0  0  2  0  0  0  0  0  0  0  0  0
    9.5338  -18.5648   18.1509 N   0  0  0  0  0  0  0  0  0  0  0  0
   10.5027  -16.8604   19.4673 C   0  0  0  0  0  0  0  0  0  0  0  0
   11.3430  -15.9528   19.7479 O   0  0  0  0  0  0  0  0  0  0  0  0
    7.4759  -14.8095   19.7588 C   0  0  0  0  0  0  0  0  0  0  0  0
    7.6412  -15.4179   21.1461 C   0  0  1  0  0  0  0  0  0  0  0  0
    6.7442  -16.6197   21.2110 C   0  0  0  0  0  0  0  0  0  0  0  0
    9.0947  -15.8493   21.2883 C   0  0  2  0  0  0  0  0  0  0  0  0
    9.2859  -16.8210   20.2017 N   0  0  0  0  0  0  0  0  0  0  0  0
    9.3647  -16.5164   22.5511 C   0  0  0  0  0  0  0  0  0  0  0  0
   10.2119  -17.4409   22.6392 O   0  0  0  0  0  0  0  0  0  0  0  0
    8.6978  -16.1809   23.7816 N   0  0  0  0  0  0  0  0  0  0  0  0
    9.3324  -16.2776   25.0714 C   0  0  1  0  0  0  0  0  0  0  0  0
    9.2392  -15.0554   25.9230 C   0  0  0  0  0  0  0  0  0  0  0  0
    7.9189  -14.4737   26.1021 C   0  0  0  0  0  0  0  0  0  0  0  0
    6.7132  -15.1194   25.9368 C   0  0  0  0  0  0  0  0  0  0  0  0
    5.7239  -14.2379   26.1798 N   0  0  0  0  0  0  0  0  0  0  0  0
    6.2651  -13.0442   26.4970 C   0  0  0  0  0  0  0  0  0  0  0  0
    5.7343  -11.8241   26.8329 C   0  0  0  0  0  0  0  0  0  0  0  0
    6.4963  -10.7343   27.1259 C   0  0  0  0  0  0  0  0  0  0  0  0
    7.8547  -10.8419   27.0890 C   0  0  0  0  0  0  0  0  0  0  0  0
    8.4140  -12.0550   26.7546 C   0  0  0  0  0  0  0  0  0  0  0  0
    7.6513  -13.1733   26.4534 C   0  0  0  0  0  0  0  0  0  0  0  0
    8.9068  -17.5035   25.7766 C   0  0  0  0  0  0  0  0  0  0  0  0
    9.6134  -17.9294   26.8857 O   0  0  0  0  0  0  0  0  0  0  0  0
    7.9222  -18.1843   25.4115 O   0  0  0  0  0  0  0  0  0  0  0  0
  1  2  1  0
  2  4  1  0
  3  2  2  0
  4  5  1  0
  6  7  1  6
  6  5  1  0
  8  9  2  0
  8  6  1  0
 11 10  1  6
 11 13  1  0
 12 11  1  0
 13 14  1  6
 14  8  1  0
 15 13  1  0
 15 17  1  0
 16 15  2  0
 18 17  1  0
 18 29  1  0
 19 20  1  0
 18 19  1  1
 20 28  1  0
 21 22  1  0
 21 20  2  0
 22 23  1  0
 23 28  2  0
 23 24  1  0
 24 25  2  0
 25 26  1  0
 27 26  2  0
 28 27  1  0
 29 31  2  0
 29 30  1  0
M  END
$$$$
