QVW.pdb
     RDKit          3D

 31 32  0  0  1  0  0  0  0  0999 V2000
   13.1257  -18.3136   17.4974 N   0  0  0  0  0  0  0  0  0  0  0  0
   12.5946  -19.6311   17.6705 C   0  0  0  0  0  0  0  0  0  0  0  0
   13.2395  -20.6189   17.2633 O   0  0  0  0  0  0  0  0  0  0  0  0
   11.2929  -19.8170   18.3327 C   0  0  0  0  0  0  0  0  0  0  0  0
   10.5960  -18.5936   18.7810 C   0  0  0  0  0  0  0  0  0  0  0  0
   10.3043  -18.3890   20.2181 C   0  0  2  0  0  0  0  0  0  0  0  0
    8.9382  -18.9662   20.4347 N   0  0  0  0  0  0  0  0  0  0  0  0
   10.2581  -17.0294   20.7234 C   0  0  0  0  0  0  0  0  0  0  0  0
   11.3311  -16.3648   20.8473 O   0  0  0  0  0  0  0  0  0  0  0  0
    7.1351  -15.3791   20.1984 C   0  0  0  0  0  0  0  0  0  0  0  0
    7.8395  -14.3345   21.0554 C   0  0  1  0  0  0  0  0  0  0  0  0
    6.9161  -13.9984   22.1901 C   0  0  0  0  0  0  0  0  0  0  0  0
    9.1142  -14.9678   21.5965 C   0  0  2  0  0  0  0  0  0  0  0  0
    9.0663  -16.3491   21.0953 N   0  0  0  0  0  0  0  0  0  0  0  0
    9.1516  -15.0094   23.0489 C   0  0  0  0  0  0  0  0  0  0  0  0
    8.4896  -14.2009   23.7478 O   0  0  0  0  0  0  0  0  0  0  0  0
    9.9340  -15.9607   23.7933 N   0  0  0  0  0  0  0  0  0  0  0  0
    9.8012  -16.1461   25.2159 C   0  0  1  0  0  0  0  0  0  0  0  0
    8.4263  -16.4798   25.6915 C   0  0  0  0  0  0  0  0  0  0  0  0
    7.4611  -15.3935   25.7375 C   0  0  0  0  0  0  0  0  0  0  0  0
    6.1701  -15.4277   25.2581 C   0  0  0  0  0  0  0  0  0  0  0  0
    5.6056  -14.2239   25.4748 N   0  0  0  0  0  0  0  0  0  0  0  0
    6.5020  -13.4195   26.0813 C   0  0  0  0  0  0  0  0  0  0  0  0
    6.4601  -12.1217   26.5256 C   0  0  0  0  0  0  0  0  0  0  0  0
    7.5138  -11.5054   27.1288 C   0  0  0  0  0  0  0  0  0  0  0  0
    8.6754  -12.1958   27.3088 C   0  0  0  0  0  0  0  0  0  0  0  0
    8.7450  -13.5000   26.8722 C   0  0  0  0  0  0  0  0  0  0  0  0
    7.6807  -14.1408   26.2559 C   0  0  0  0  0  0  0  0  0  0  0  0
   10.8272  -17.0795   25.7229 C   0  0  0  0  0  0  0  0  0  0  0  0
   10.8977  -17.3408   27.0785 O   0  0  0  0  0  0  0  0  0  0  0  0
   11.6476  -17.6530   24.9717 O   0  0  0  0  0  0  0  0  0  0  0  0
  1  2  1  0
  2  4  1  0
  3  2  2  0
  4  5  1  0
  6  7  1  6
  6  5  1  0
  8  9  2  0
  8  6  1  0
 11 10  1  6
 11 13  1  0
 12 11  1  0
 13 14  1  6
 14  8  1  0
 15 13  1  0
 15 17  1  0
 16 15  2  0
 18 17  1  0
 18 29  1  0
 19 20  1  0
 18 19  1  6
 20 28  1  0
 21 22  1  0
 21 20  2  0
 22 23  1  0
 23 28  2  0
 23 24  1  0
 24 25  2  0
 25 26  1  0
 27 26  2  0
 28 27  1  0
 29 31  2  0
 29 30  1  0
M  END
$$$$
