QVW.pdb
     RDKit          3D

 31 32  0  0  1  0  0  0  0  0999 V2000
    8.6883  -12.3244   15.4799 N   0  0  0  0  0  0  0  0  0  0  0  0
    8.3697  -13.6953   15.2209 C   0  0  0  0  0  0  0  0  0  0  0  0
    8.4346  -14.1384   14.0560 O   0  0  0  0  0  0  0  0  0  0  0  0
    7.9724  -14.5790   16.3294 C   0  0  0  0  0  0  0  0  0  0  0  0
    8.9773  -15.5605   16.7880 C   0  0  0  0  0  0  0  0  0  0  0  0
    9.8095  -15.2710   17.9779 C   0  0  2  0  0  0  0  0  0  0  0  0
   10.8669  -16.3330   17.9939 N   0  0  0  0  0  0  0  0  0  0  0  0
    9.1772  -15.3044   19.2836 C   0  0  0  0  0  0  0  0  0  0  0  0
    8.0261  -14.7959   19.4413 O   0  0  0  0  0  0  0  0  0  0  0  0
    6.9539  -17.2336   22.4696 C   0  0  0  0  0  0  0  0  0  0  0  0
    7.8277  -16.9885   21.2456 C   0  0  1  0  0  0  0  0  0  0  0  0
    6.9710  -16.3019   20.2218 C   0  0  0  0  0  0  0  0  0  0  0  0
    8.9644  -16.0683   21.6695 C   0  0  2  0  0  0  0  0  0  0  0  0
    9.7552  -15.8905   20.4429 N   0  0  0  0  0  0  0  0  0  0  0  0
    9.8209  -16.6594   22.6841 C   0  0  0  0  0  0  0  0  0  0  0  0
   11.0640  -16.7544   22.5224 O   0  0  0  0  0  0  0  0  0  0  0  0
    9.3273  -17.1751   23.9338 N   0  0  0  0  0  0  0  0  0  0  0  0
    9.7158  -16.6398   25.2137 C   0  0  1  0  0  0  0  0  0  0  0  0
    9.4626  -15.1806   25.4000 C   0  0  0  0  0  0  0  0  0  0  0  0
    8.1075  -14.7840   25.7465 C   0  0  0  0  0  0  0  0  0  0  0  0
    7.0004  -15.6032   25.7792 C   0  0  0  0  0  0  0  0  0  0  0  0
    5.9335  -14.8596   26.1308 N   0  0  0  0  0  0  0  0  0  0  0  0
    6.3291  -13.5851   26.3247 C   0  0  0  0  0  0  0  0  0  0  0  0
    5.6736  -12.4362   26.6904 C   0  0  0  0  0  0  0  0  0  0  0  0
    6.2976  -11.2343   26.8323 C   0  0  0  0  0  0  0  0  0  0  0  0
    7.6388  -11.1491   26.6041 C   0  0  0  0  0  0  0  0  0  0  0  0
    8.3214  -12.2868   26.2356 C   0  0  0  0  0  0  0  0  0  0  0  0
    7.6999  -13.5175   26.0867 C   0  0  0  0  0  0  0  0  0  0  0  0
    9.1745  -17.4623   26.3144 C   0  0  0  0  0  0  0  0  0  0  0  0
    9.7530  -17.3861   27.5676 O   0  0  0  0  0  0  0  0  0  0  0  0
    8.2027  -18.2363   26.1632 O   0  0  0  0  0  0  0  0  0  0  0  0
  1  2  1  0
  2  4  1  0
  3  2  2  0
  4  5  1  0
  6  7  1  1
  6  5  1  0
  8  9  2  0
  8  6  1  0
 11 10  1  1
 11 13  1  0
 12 11  1  0
 13 14  1  6
 14  8  1  0
 15 13  1  0
 15 17  1  0
 16 15  2  0
 18 17  1  0
 18 29  1  0
 19 20  1  0
 18 19  1  1
 20 28  1  0
 21 22  1  0
 21 20  2  0
 22 23  1  0
 23 28  2  0
 23 24  1  0
 24 25  2  0
 25 26  1  0
 27 26  2  0
 28 27  1  0
 29 31  2  0
 29 30  1  0
M  END
$$$$
