NSC.pdb
     RDKit          3D

 21 20  0  0  1  0  0  0  0  0999 V2000
   16.1263  -10.3399  -17.3148 N   0  0  0  0  0  0  0  0  0  0  0  0
   15.1527  -10.6688  -16.3302 C   0  0  0  0  0  0  0  0  0  0  0  0
   13.9745  -10.9229  -16.6307 O   0  0  0  0  0  0  0  0  0  0  0  0
   15.6065  -10.6957  -14.9217 C   0  0  0  0  0  0  0  0  0  0  0  0
   17.0659  -10.3316  -14.8480 C   0  0  2  0  0  0  0  0  0  0  0  0
   17.8743  -11.5145  -14.8928 N   0  0  0  0  0  0  0  0  0  0  0  0
   17.3350   -9.6400  -13.5515 C   0  0  0  0  0  0  0  0  0  0  0  0
   17.1233  -10.3449  -12.5058 O   0  0  0  0  0  0  0  0  0  0  0  0
   20.3579   -6.9027  -12.6988 O   0  0  0  0  0  0  0  0  0  0  0  0
   19.0539   -6.5526  -12.4469 C   0  0  0  0  0  0  0  0  0  0  0  0
   18.1297   -7.7278  -12.2067 C   0  0  2  0  0  0  0  0  0  0  0  0
   17.7929   -8.2965  -13.4819 N   0  0  0  0  0  0  0  0  0  0  0  0
   16.8997   -7.2664  -11.4754 C   0  0  0  0  0  0  0  0  0  0  0  0
   15.9779   -6.6801  -12.0979 O   0  0  0  0  0  0  0  0  0  0  0  0
   16.7089   -7.4567  -10.0893 N   0  0  0  0  0  0  0  0  0  0  0  0
   15.5495   -6.9929   -9.3690 C   0  0  1  0  0  0  0  0  0  0  0  0
   14.8690   -8.0704   -8.5746 C   0  0  0  0  0  0  0  0  0  0  0  0
   14.6905   -9.6055   -9.5262 S   0  0  0  0  0  0  0  0  0  0  0  0
   15.8201   -5.8361   -8.5019 C   0  0  0  0  0  0  0  0  0  0  0  0
   16.9864   -5.4385   -8.2546 O   0  0  0  0  0  0  0  0  0  0  0  0
   14.7619   -5.1644   -7.9407 O   0  0  0  0  0  0  0  0  0  0  0  0
  2  4  1  0
  2  1  1  0
  3  2  2  0
  5  6  1  1
  5  4  1  0
  7  5  1  0
  8  7  2  0
  9 10  1  0
 11 10  1  6
 11 12  1  0
 11 13  1  0
 12  7  1  0
 13 14  2  0
 13 15  1  0
 15 16  1  0
 16 17  1  1
 16 19  1  0
 17 18  1  0
 19 21  1  0
 20 19  2  0
M  END
$$$$
