NSC.pdb
     RDKit          3D

 21 20  0  0  1  0  0  0  0  0999 V2000
   18.8222  -12.2467  -19.3192 N   0  0  0  0  0  0  0  0  0  0  0  0
   18.4399  -10.9114  -19.6292 C   0  0  0  0  0  0  0  0  0  0  0  0
   18.1249  -10.5688  -20.7809 O   0  0  0  0  0  0  0  0  0  0  0  0
   18.4331   -9.9399  -18.5126 C   0  0  0  0  0  0  0  0  0  0  0  0
   18.9139  -10.6076  -17.2514 C   0  0  2  0  0  0  0  0  0  0  0  0
   17.8690  -11.4102  -16.6866 N   0  0  0  0  0  0  0  0  0  0  0  0
   19.2813   -9.5613  -16.2506 C   0  0  0  0  0  0  0  0  0  0  0  0
   18.3010   -9.0734  -15.5902 O   0  0  0  0  0  0  0  0  0  0  0  0
   22.5986   -7.6629  -13.3734 O   0  0  0  0  0  0  0  0  0  0  0  0
   22.1780   -8.5545  -14.3298 C   0  0  0  0  0  0  0  0  0  0  0  0
   20.9060   -8.1472  -15.0432 C   0  0  2  0  0  0  0  0  0  0  0  0
   20.6218   -9.1365  -16.0450 N   0  0  0  0  0  0  0  0  0  0  0  0
   21.0809   -6.7862  -15.6577 C   0  0  0  0  0  0  0  0  0  0  0  0
   21.7025   -6.6589  -16.7433 O   0  0  0  0  0  0  0  0  0  0  0  0
   20.5745   -5.6047  -15.0735 N   0  0  0  0  0  0  0  0  0  0  0  0
   20.8405   -4.2820  -15.5814 C   0  0  1  0  0  0  0  0  0  0  0  0
   19.6344   -3.3874  -15.5796 C   0  0  0  0  0  0  0  0  0  0  0  0
   18.2181   -4.1557  -16.4150 S   0  0  0  0  0  0  0  0  0  0  0  0
   21.9577   -3.6061  -14.9043 C   0  0  0  0  0  0  0  0  0  0  0  0
   22.1814   -3.7422  -13.6751 O   0  0  0  0  0  0  0  0  0  0  0  0
   22.7880   -2.7962  -15.6395 O   0  0  0  0  0  0  0  0  0  0  0  0
  2  4  1  0
  2  1  1  0
  3  2  2  0
  5  6  1  1
  5  4  1  0
  7  5  1  0
  8  7  2  0
  9 10  1  0
 11 10  1  6
 11 12  1  0
 11 13  1  0
 12  7  1  0
 13 14  2  0
 13 15  1  0
 15 16  1  0
 16 17  1  1
 16 19  1  0
 17 18  1  0
 19 21  1  0
 20 19  2  0
M  END
$$$$
