NSC.pdb
     RDKit          3D

 21 20  0  0  1  0  0  0  0  0999 V2000
   23.0534  -21.7808   -7.9795 N   0  0  0  0  0  0  0  0  0  0  0  0
   22.3888  -20.7975   -8.7649 C   0  0  0  0  0  0  0  0  0  0  0  0
   21.2509  -20.3885   -8.4803 O   0  0  0  0  0  0  0  0  0  0  0  0
   23.1161  -20.2783   -9.9448 C   0  0  0  0  0  0  0  0  0  0  0  0
   24.3971  -21.0470  -10.1343 C   0  0  2  0  0  0  0  0  0  0  0  0
   25.3658  -20.6437   -9.1577 N   0  0  0  0  0  0  0  0  0  0  0  0
   24.9554  -20.7459  -11.4868 C   0  0  0  0  0  0  0  0  0  0  0  0
   25.7218  -19.7239  -11.5427 O   0  0  0  0  0  0  0  0  0  0  0  0
   26.6170  -22.2202  -15.6156 O   0  0  0  0  0  0  0  0  0  0  0  0
   26.0369  -22.3912  -14.3824 C   0  0  0  0  0  0  0  0  0  0  0  0
   25.2430  -21.1964  -13.8975 C   0  0  2  0  0  0  0  0  0  0  0  0
   24.6582  -21.5358  -12.6302 N   0  0  0  0  0  0  0  0  0  0  0  0
   24.1859  -20.8445  -14.9070 C   0  0  0  0  0  0  0  0  0  0  0  0
   23.1910  -21.5965  -15.0675 O   0  0  0  0  0  0  0  0  0  0  0  0
   24.2422  -19.6854  -15.7114 N   0  0  0  0  0  0  0  0  0  0  0  0
   23.2905  -19.3850  -16.7518 C   0  0  1  0  0  0  0  0  0  0  0  0
   23.3788  -17.9722  -17.2528 C   0  0  0  0  0  0  0  0  0  0  0  0
   23.0346  -16.7644  -15.9426 S   0  0  0  0  0  0  0  0  0  0  0  0
   23.3487  -20.3168  -17.8884 C   0  0  0  0  0  0  0  0  0  0  0  0
   22.3708  -20.5056  -18.6548 O   0  0  0  0  0  0  0  0  0  0  0  0
   24.5127  -21.0068  -18.1229 O   0  0  0  0  0  0  0  0  0  0  0  0
  2  4  1  0
  2  1  1  0
  3  2  2  0
  5  6  1  1
  5  4  1  0
  7  5  1  0
  8  7  2  0
  9 10  1  0
 11 10  1  6
 11 12  1  0
 11 13  1  0
 12  7  1  0
 13 14  2  0
 13 15  1  0
 15 16  1  0
 16 17  1  6
 16 19  1  0
 17 18  1  0
 19 21  1  0
 20 19  2  0
M  END
$$$$
