NSC.pdb
     RDKit          3D

 21 20  0  0  1  0  0  0  0  0999 V2000
   18.9025  -14.9767  -16.2693 N   0  0  0  0  0  0  0  0  0  0  0  0
   18.6538  -13.7560  -16.9574 C   0  0  0  0  0  0  0  0  0  0  0  0
   18.4299  -13.7244  -18.1789 O   0  0  0  0  0  0  0  0  0  0  0  0
   18.6732  -12.5156  -16.1502 C   0  0  0  0  0  0  0  0  0  0  0  0
   19.2830  -11.3949  -16.9501 C   0  0  2  0  0  0  0  0  0  0  0  0
   20.6539  -11.6884  -17.2488 N   0  0  0  0  0  0  0  0  0  0  0  0
   19.2475  -10.1387  -16.1425 C   0  0  0  0  0  0  0  0  0  0  0  0
   18.0916   -9.8029  -15.7111 O   0  0  0  0  0  0  0  0  0  0  0  0
   21.6895   -6.5032  -14.0367 O   0  0  0  0  0  0  0  0  0  0  0  0
   21.6587   -7.7096  -14.6927 C   0  0  0  0  0  0  0  0  0  0  0  0
   20.2874   -8.1093  -15.1954 C   0  0  2  0  0  0  0  0  0  0  0  0
   20.4120   -9.3704  -15.8716 N   0  0  0  0  0  0  0  0  0  0  0  0
   19.7546   -7.0483  -16.1178 C   0  0  0  0  0  0  0  0  0  0  0  0
   20.1542   -6.9884  -17.3085 O   0  0  0  0  0  0  0  0  0  0  0  0
   18.8033   -6.0846  -15.7179 N   0  0  0  0  0  0  0  0  0  0  0  0
   18.3378   -5.0174  -16.5679 C   0  0  1  0  0  0  0  0  0  0  0  0
   16.8415   -4.9459  -16.6724 C   0  0  0  0  0  0  0  0  0  0  0  0
   16.2960   -3.5049  -17.6315 S   0  0  0  0  0  0  0  0  0  0  0  0
   18.8707   -3.6971  -16.1988 C   0  0  0  0  0  0  0  0  0  0  0  0
   18.8534   -3.2707  -15.0167 O   0  0  0  0  0  0  0  0  0  0  0  0
   19.4072   -2.8993  -17.1795 O   0  0  0  0  0  0  0  0  0  0  0  0
  2  4  1  0
  2  1  1  0
  3  2  2  0
  5  6  1  1
  5  4  1  0
  7  5  1  0
  8  7  2  0
  9 10  1  0
 11 10  1  6
 11 12  1  0
 11 13  1  0
 12  7  1  0
 13 14  2  0
 13 15  1  0
 15 16  1  0
 16 17  1  1
 16 19  1  0
 17 18  1  0
 19 21  1  0
 20 19  2  0
M  END
$$$$
