NSC.pdb
     RDKit          3D

 21 20  0  0  1  0  0  0  0  0999 V2000
   37.1373  -29.6461    1.2450 N   0  0  0  0  0  0  0  0  0  0  0  0
   35.9853  -29.3416    2.0231 C   0  0  0  0  0  0  0  0  0  0  0  0
   34.8521  -29.7354    1.7008 O   0  0  0  0  0  0  0  0  0  0  0  0
   36.1956  -28.5297    3.2426 C   0  0  0  0  0  0  0  0  0  0  0  0
   37.6486  -28.1522    3.3608 C   0  0  2  0  0  0  0  0  0  0  0  0
   38.4238  -29.2874    3.7672 N   0  0  0  0  0  0  0  0  0  0  0  0
   37.7984  -27.0956    4.4061 C   0  0  0  0  0  0  0  0  0  0  0  0
   37.6389  -27.4962    5.6100 O   0  0  0  0  0  0  0  0  0  0  0  0
   40.3733  -23.9002    4.4402 O   0  0  0  0  0  0  0  0  0  0  0  0
   39.0421  -23.6162    4.6240 C   0  0  0  0  0  0  0  0  0  0  0  0
   38.2245  -24.7788    5.1463 C   0  0  2  0  0  0  0  0  0  0  0  0
   38.0964  -25.7427    4.0891 N   0  0  0  0  0  0  0  0  0  0  0  0
   36.8778  -24.2896    5.6018 C   0  0  0  0  0  0  0  0  0  0  0  0
   35.8405  -24.6179    4.9713 O   0  0  0  0  0  0  0  0  0  0  0  0
   36.6993  -23.4584    6.7292 N   0  0  0  0  0  0  0  0  0  0  0  0
   35.4095  -23.0540    7.2304 C   0  0  1  0  0  0  0  0  0  0  0  0
   34.4970  -24.2078    7.5321 C   0  0  0  0  0  0  0  0  0  0  0  0
   32.9282  -23.6598    8.2619 S   0  0  0  0  0  0  0  0  0  0  0  0
   35.4857  -22.1656    8.4002 C   0  0  0  0  0  0  0  0  0  0  0  0
   36.5424  -22.0156    9.0637 O   0  0  0  0  0  0  0  0  0  0  0  0
   34.3630  -21.4739    8.7834 O   0  0  0  0  0  0  0  0  0  0  0  0
  2  4  1  0
  2  1  1  0
  3  2  2  0
  5  6  1  1
  5  4  1  0
  7  5  1  0
  8  7  2  0
  9 10  1  0
 11 10  1  6
 11 12  1  0
 11 13  1  0
 12  7  1  0
 13 14  2  0
 13 15  1  0
 15 16  1  0
 16 17  1  1
 16 19  1  0
 17 18  1  0
 19 21  1  0
 20 19  2  0
M  END
$$$$
