NSC.pdb
     RDKit          3D

 21 20  0  0  1  0  0  0  0  0999 V2000
   16.0335  -13.3137  -16.2964 N   0  0  0  0  0  0  0  0  0  0  0  0
   16.6158  -12.8091  -15.1000 C   0  0  0  0  0  0  0  0  0  0  0  0
   16.1243  -13.0387  -13.9825 O   0  0  0  0  0  0  0  0  0  0  0  0
   17.8418  -11.9925  -15.2440 C   0  0  0  0  0  0  0  0  0  0  0  0
   18.2164  -11.8854  -16.6987 C   0  0  2  0  0  0  0  0  0  0  0  0
   18.9725  -13.0348  -17.1013 N   0  0  0  0  0  0  0  0  0  0  0  0
   19.0740  -10.6786  -16.8977 C   0  0  0  0  0  0  0  0  0  0  0  0
   20.3006  -10.8234  -16.5666 O   0  0  0  0  0  0  0  0  0  0  0  0
   19.5028   -6.1941  -18.7202 O   0  0  0  0  0  0  0  0  0  0  0  0
   18.7634   -7.3255  -18.4759 C   0  0  0  0  0  0  0  0  0  0  0  0
   19.4492   -8.3353  -17.5799 C   0  0  2  0  0  0  0  0  0  0  0  0
   18.5667   -9.4568  -17.4170 N   0  0  0  0  0  0  0  0  0  0  0  0
   19.7738   -7.7023  -16.2554 C   0  0  0  0  0  0  0  0  0  0  0  0
   18.8928   -7.6209  -15.3619 O   0  0  0  0  0  0  0  0  0  0  0  0
   21.0465   -7.1770  -15.9422 N   0  0  0  0  0  0  0  0  0  0  0  0
   21.3520   -6.5000  -14.7066 C   0  0  1  0  0  0  0  0  0  0  0  0
   22.2766   -7.2756  -13.8129 C   0  0  0  0  0  0  0  0  0  0  0  0
   21.7542   -7.2115  -12.0760 S   0  0  0  0  0  0  0  0  0  0  0  0
   21.8751   -5.1385  -14.8962 C   0  0  0  0  0  0  0  0  0  0  0  0
   22.3490   -4.7460  -15.9920 O   0  0  0  0  0  0  0  0  0  0  0  0
   21.8461   -4.2624  -13.8391 O   0  0  0  0  0  0  0  0  0  0  0  0
  2  4  1  0
  2  1  1  0
  3  2  2  0
  5  6  1  1
  5  4  1  0
  7  5  1  0
  8  7  2  0
  9 10  1  0
 11 10  1  6
 11 12  1  0
 11 13  1  0
 12  7  1  0
 13 14  2  0
 13 15  1  0
 15 16  1  0
 16 17  1  6
 16 19  1  0
 17 18  1  0
 19 21  1  0
 20 19  2  0
M  END
$$$$
