NSC.pdb
     RDKit          3D

 21 20  0  0  1  0  0  0  0  0999 V2000
   29.3368  -23.7223  -16.1991 N   0  0  0  0  0  0  0  0  0  0  0  0
   28.6688  -22.6738  -16.8916 C   0  0  0  0  0  0  0  0  0  0  0  0
   29.2668  -21.9202  -17.6775 O   0  0  0  0  0  0  0  0  0  0  0  0
   27.2197  -22.5174  -16.6342 C   0  0  0  0  0  0  0  0  0  0  0  0
   26.7652  -23.5445  -15.6310 C   0  0  2  0  0  0  0  0  0  0  0  0
   26.6827  -24.8361  -16.2472 N   0  0  0  0  0  0  0  0  0  0  0  0
   25.4018  -23.1819  -15.1397 C   0  0  0  0  0  0  0  0  0  0  0  0
   24.4352  -23.7631  -15.7421 O   0  0  0  0  0  0  0  0  0  0  0  0
   22.7082  -20.7512  -11.8946 O   0  0  0  0  0  0  0  0  0  0  0  0
   23.9230  -21.1891  -12.3624 C   0  0  0  0  0  0  0  0  0  0  0  0
   23.8506  -21.9356  -13.6778 C   0  0  2  0  0  0  0  0  0  0  0  0
   25.1910  -22.2586  -14.0802 N   0  0  0  0  0  0  0  0  0  0  0  0
   23.1640  -21.0837  -14.7089 C   0  0  0  0  0  0  0  0  0  0  0  0
   23.7719  -20.1171  -15.2355 O   0  0  0  0  0  0  0  0  0  0  0  0
   21.8373  -21.3084  -15.1367 N   0  0  0  0  0  0  0  0  0  0  0  0
   21.1266  -20.4346  -16.0366 C   0  0  1  0  0  0  0  0  0  0  0  0
   20.8386  -21.0581  -17.3719 C   0  0  0  0  0  0  0  0  0  0  0  0
   20.0093  -19.9004  -18.4971 S   0  0  0  0  0  0  0  0  0  0  0  0
   19.8845  -19.8895  -15.4678 C   0  0  0  0  0  0  0  0  0  0  0  0
   19.1935  -20.5219  -14.6300 O   0  0  0  0  0  0  0  0  0  0  0  0
   19.4622  -18.6446  -15.8651 O   0  0  0  0  0  0  0  0  0  0  0  0
  2  4  1  0
  2  1  1  0
  3  2  2  0
  5  6  1  6
  5  4  1  0
  7  5  1  0
  8  7  2  0
  9 10  1  0
 11 10  1  1
 11 12  1  0
 11 13  1  0
 12  7  1  0
 13 14  2  0
 13 15  1  0
 15 16  1  0
 16 17  1  6
 16 19  1  0
 17 18  1  0
 19 21  1  0
 20 19  2  0
M  END
$$$$
