NSC.pdb
     RDKit          3D

 21 20  0  0  1  0  0  0  0  0999 V2000
   15.8252  -12.6962  -16.3821 N   0  0  0  0  0  0  0  0  0  0  0  0
   17.2060  -12.3593  -16.3097 C   0  0  0  0  0  0  0  0  0  0  0  0
   18.0647  -12.9609  -16.9757 O   0  0  0  0  0  0  0  0  0  0  0  0
   17.5790  -11.2528  -15.4003 C   0  0  0  0  0  0  0  0  0  0  0  0
   18.3264  -10.1925  -16.1653 C   0  0  2  0  0  0  0  0  0  0  0  0
   19.6365  -10.6612  -16.5098 N   0  0  0  0  0  0  0  0  0  0  0  0
   18.4832   -8.9828  -15.3030 C   0  0  0  0  0  0  0  0  0  0  0  0
   17.3899   -8.4162  -14.9582 O   0  0  0  0  0  0  0  0  0  0  0  0
   22.2517   -7.3994  -14.3109 O   0  0  0  0  0  0  0  0  0  0  0  0
   21.1872   -7.2345  -13.4588 C   0  0  0  0  0  0  0  0  0  0  0  0
   19.8345   -7.2758  -14.1382 C   0  0  2  0  0  0  0  0  0  0  0  0
   19.7536   -8.4945  -14.8939 N   0  0  0  0  0  0  0  0  0  0  0  0
   19.6747   -6.0736  -15.0268 C   0  0  0  0  0  0  0  0  0  0  0  0
   19.9692   -6.1470  -16.2471 O   0  0  0  0  0  0  0  0  0  0  0  0
   19.1994   -4.8279  -14.5621 N   0  0  0  0  0  0  0  0  0  0  0  0
   19.1211   -3.6440  -15.3810 C   0  0  1  0  0  0  0  0  0  0  0  0
   17.9004   -2.8115  -15.1129 C   0  0  0  0  0  0  0  0  0  0  0  0
   17.8972   -1.2787  -16.0847 S   0  0  0  0  0  0  0  0  0  0  0  0
   20.3220   -2.7979  -15.3071 C   0  0  0  0  0  0  0  0  0  0  0  0
   20.8993   -2.3576  -16.3329 O   0  0  0  0  0  0  0  0  0  0  0  0
   20.8331   -2.4760  -14.0738 O   0  0  0  0  0  0  0  0  0  0  0  0
  2  4  1  0
  2  1  1  0
  3  2  2  0
  5  6  1  1
  5  4  1  0
  7  5  1  0
  8  7  2  0
  9 10  1  0
 11 10  1  6
 11 12  1  0
 11 13  1  0
 12  7  1  0
 13 14  2  0
 13 15  1  0
 15 16  1  0
 16 17  1  1
 16 19  1  0
 17 18  1  0
 19 21  1  0
 20 19  2  0
M  END
$$$$
