NSC.pdb
     RDKit          3D

 21 20  0  0  1  0  0  0  0  0999 V2000
   22.1659  -19.4461  -15.2844 N   0  0  0  0  0  0  0  0  0  0  0  0
   21.7015  -18.1890  -15.7634 C   0  0  0  0  0  0  0  0  0  0  0  0
   20.9210  -18.1005  -16.7258 O   0  0  0  0  0  0  0  0  0  0  0  0
   22.1912  -16.9817  -15.0611 C   0  0  0  0  0  0  0  0  0  0  0  0
   22.4647  -15.8865  -16.0578 C   0  0  2  0  0  0  0  0  0  0  0  0
   23.5693  -16.2458  -16.8978 N   0  0  0  0  0  0  0  0  0  0  0  0
   22.8312  -14.6367  -15.3264 C   0  0  0  0  0  0  0  0  0  0  0  0
   22.0530  -14.3242  -14.3611 O   0  0  0  0  0  0  0  0  0  0  0  0
   26.0868  -12.2643  -16.4732 O   0  0  0  0  0  0  0  0  0  0  0  0
   25.6886  -12.2831  -15.1588 C   0  0  0  0  0  0  0  0  0  0  0  0
   24.2301  -12.6359  -14.9558 C   0  0  2  0  0  0  0  0  0  0  0  0
   23.9620  -13.8497  -15.6755 N   0  0  0  0  0  0  0  0  0  0  0  0
   23.3616  -11.5106  -15.4454 C   0  0  0  0  0  0  0  0  0  0  0  0
   22.9477  -11.5033  -16.6327 O   0  0  0  0  0  0  0  0  0  0  0  0
   22.9691  -10.4272  -14.6294 N   0  0  0  0  0  0  0  0  0  0  0  0
   22.1637   -9.3252  -15.0933 C   0  0  1  0  0  0  0  0  0  0  0  0
   21.5343   -8.5356  -13.9820 C   0  0  0  0  0  0  0  0  0  0  0  0
   20.7623   -9.6093  -12.7389 S   0  0  0  0  0  0  0  0  0  0  0  0
   22.8791   -8.4159  -16.0016 C   0  0  0  0  0  0  0  0  0  0  0  0
   24.1090   -8.5275  -16.2347 O   0  0  0  0  0  0  0  0  0  0  0  0
   22.1802   -7.4075  -16.6184 O   0  0  0  0  0  0  0  0  0  0  0  0
  2  4  1  0
  2  1  1  0
  3  2  2  0
  5  6  1  6
  5  4  1  0
  7  5  1  0
  8  7  2  0
  9 10  1  0
 11 10  1  6
 11 12  1  0
 11 13  1  0
 12  7  1  0
 13 14  2  0
 13 15  1  0
 15 16  1  0
 16 17  1  1
 16 19  1  0
 17 18  1  0
 19 21  1  0
 20 19  2  0
M  END
$$$$
