KYD.pdb
     RDKit          3D

 30 30  0  0  1  0  0  0  0  0999 V2000
    8.5075  -17.9313   20.2712 N   0  0  0  0  0  0  0  0  0  0  0  0
    9.7446  -17.1667   20.0781 C   0  0  1  0  0  0  0  0  0  0  0  0
    9.7745  -16.5865   18.6792 C   0  0  0  0  0  0  0  0  0  0  0  0
    9.1890  -17.5039   17.6609 C   0  0  0  0  0  0  0  0  0  0  0  0
    9.3306  -16.9813   16.2478 C   0  0  0  0  0  0  0  0  0  0  0  0
    8.6803  -17.9408   15.2737 C   0  0  0  0  0  0  0  0  0  0  0  0
    7.2336  -17.8020   15.3905 N   0  0  0  0  0  0  0  0  0  0  0  0
    9.7479  -16.0956   21.1073 C   0  0  0  0  0  0  0  0  0  0  0  0
   10.6856  -15.2644   21.2099 O   0  0  0  0  0  0  0  0  0  0  0  0
    6.5590  -11.1210   27.8270 O   0  0  0  0  0  0  0  0  0  0  0  0
    6.7399  -11.9331   26.7143 C   0  0  0  0  0  0  0  0  0  0  0  0
    7.2069  -11.4216   25.5115 C   0  0  0  0  0  0  0  0  0  0  0  0
    7.3739  -12.2636   24.4247 C   0  0  0  0  0  0  0  0  0  0  0  0
    7.0878  -13.6031   24.5042 C   0  0  0  0  0  0  0  0  0  0  0  0
    7.2688  -14.4746   23.3503 C   0  0  0  0  0  0  0  0  0  0  0  0
    8.6659  -14.9657   23.1075 C   0  0  2  0  0  0  0  0  0  0  0  0
    8.6766  -15.9517   22.0432 N   0  0  0  0  0  0  0  0  0  0  0  0
    9.3920  -15.4401   24.2957 C   0  0  0  0  0  0  0  0  0  0  0  0
    9.6371  -14.6888   25.2670 O   0  0  0  0  0  0  0  0  0  0  0  0
    6.6224  -14.1323   25.6907 C   0  0  0  0  0  0  0  0  0  0  0  0
    6.4633  -13.2786   26.7590 C   0  0  0  0  0  0  0  0  0  0  0  0
    9.8437  -16.7871   24.3838 N   0  0  0  0  0  0  0  0  0  0  0  0
   10.5403  -17.4067   25.4388 C   0  0  1  0  0  0  0  0  0  0  0  0
    9.9904  -18.6162   26.0725 C   0  0  0  0  0  0  0  0  0  0  0  0
   10.8851  -19.1438   27.1172 C   0  0  0  0  0  0  0  0  0  0  0  0
   11.0130  -18.6975   28.2801 O   0  0  0  0  0  0  0  0  0  0  0  0
   11.9969  -17.6371   25.0788 C   0  0  0  0  0  0  0  0  0  0  0  0
   12.7956  -17.8691   26.0026 O   0  0  0  0  0  0  0  0  0  0  0  0
   11.6748  -20.2460   26.8043 O   0  0  0  0  0  0  0  0  0  0  0  0
   12.4485  -17.5961   23.7721 O   0  0  0  0  0  0  0  0  0  0  0  0
  2  1  1  6
  3  4  1  0
  3  2  1  0
  5  6  1  0
  5  4  1  0
  6  7  1  0
  8  2  1  0
  8  9  2  0
 10 11  1  0
 11 12  2  0
 12 13  1  0
 14 15  1  0
 14 13  2  0
 16 17  1  0
 16 15  1  1
 17  8  1  0
 18 16  1  0
 19 18  2  0
 20 14  1  0
 21 20  2  0
 21 11  1  0
 22 18  1  0
 23 22  1  0
 24 25  1  0
 23 24  1  6
 25 26  2  0
 27 23  1  0
 27 30  1  0
 28 27  2  0
 29 25  1  0
M  END
$$$$
