KYD.pdb
     RDKit          3D

 30 30  0  0  1  0  0  0  0  0999 V2000
    8.3530  -17.9210   19.9921 N   0  0  0  0  0  0  0  0  0  0  0  0
    9.4507  -16.9865   19.7195 C   0  0  1  0  0  0  0  0  0  0  0  0
    9.2081  -16.2832   18.4001 C   0  0  0  0  0  0  0  0  0  0  0  0
    8.1879  -16.9703   17.5583 C   0  0  0  0  0  0  0  0  0  0  0  0
    8.5361  -16.9590   16.0857 C   0  0  0  0  0  0  0  0  0  0  0  0
    7.3957  -17.5443   15.2800 C   0  0  0  0  0  0  0  0  0  0  0  0
    7.7870  -17.5586   13.8755 N   0  0  0  0  0  0  0  0  0  0  0  0
    9.4786  -16.0219   20.8487 C   0  0  0  0  0  0  0  0  0  0  0  0
   10.2942  -15.0663   20.8968 O   0  0  0  0  0  0  0  0  0  0  0  0
    6.5490  -11.3250   27.8002 O   0  0  0  0  0  0  0  0  0  0  0  0
    6.7066  -12.1886   26.7235 C   0  0  0  0  0  0  0  0  0  0  0  0
    7.3245  -11.7793   25.5500 C   0  0  0  0  0  0  0  0  0  0  0  0
    7.4626  -12.6700   24.4985 C   0  0  0  0  0  0  0  0  0  0  0  0
    7.0011  -13.9592   24.5850 C   0  0  0  0  0  0  0  0  0  0  0  0
    7.1543  -14.8831   23.4684 C   0  0  0  0  0  0  0  0  0  0  0  0
    8.5641  -15.2156   23.0762 C   0  0  2  0  0  0  0  0  0  0  0  0
    8.5725  -16.1295   21.9495 N   0  0  0  0  0  0  0  0  0  0  0  0
    9.4361  -15.6851   24.1639 C   0  0  0  0  0  0  0  0  0  0  0  0
    9.5206  -15.0775   25.2556 O   0  0  0  0  0  0  0  0  0  0  0  0
    6.3837  -14.3869   25.7427 C   0  0  0  0  0  0  0  0  0  0  0  0
    6.2563  -13.4861   26.7760 C   0  0  0  0  0  0  0  0  0  0  0  0
   10.2213  -16.8626   24.0115 N   0  0  0  0  0  0  0  0  0  0  0  0
   11.1857  -17.3886   24.8921 C   0  0  1  0  0  0  0  0  0  0  0  0
   11.0854  -18.7864   25.3421 C   0  0  0  0  0  0  0  0  0  0  0  0
    9.9090  -19.0033   26.2021 C   0  0  0  0  0  0  0  0  0  0  0  0
    9.0983  -18.1294   26.5854 O   0  0  0  0  0  0  0  0  0  0  0  0
   12.5941  -17.1118   24.3979 C   0  0  0  0  0  0  0  0  0  0  0  0
   13.5271  -17.2078   25.2137 O   0  0  0  0  0  0  0  0  0  0  0  0
    9.6533  -20.2979   26.6436 O   0  0  0  0  0  0  0  0  0  0  0  0
   12.8595  -16.7622   23.0862 O   0  0  0  0  0  0  0  0  0  0  0  0
  2  1  1  1
  3  4  1  0
  3  2  1  0
  5  6  1  0
  5  4  1  0
  6  7  1  0
  8  2  1  0
  8  9  2  0
 10 11  1  0
 11 12  2  0
 12 13  1  0
 14 15  1  0
 14 13  2  0
 16 17  1  0
 16 15  1  1
 17  8  1  0
 18 16  1  0
 19 18  2  0
 20 14  1  0
 21 20  2  0
 21 11  1  0
 22 18  1  0
 23 22  1  0
 24 25  1  0
 23 24  1  6
 25 26  2  0
 27 23  1  0
 27 30  1  0
 28 27  2  0
 29 25  1  0
M  END
$$$$
