KYD.pdb
     RDKit          3D

 30 30  0  0  1  0  0  0  0  0999 V2000
    8.3264  -16.3367   18.9030 N   0  0  0  0  0  0  0  0  0  0  0  0
    9.3546  -15.2936   18.9876 C   0  0  1  0  0  0  0  0  0  0  0  0
    8.9864  -14.1375   18.0808 C   0  0  0  0  0  0  0  0  0  0  0  0
    9.0091  -14.5062   16.6368 C   0  0  0  0  0  0  0  0  0  0  0  0
    7.9085  -13.8379   15.8419 C   0  0  0  0  0  0  0  0  0  0  0  0
    7.9607  -14.2959   14.3997 C   0  0  0  0  0  0  0  0  0  0  0  0
    6.7656  -13.8094   13.7208 N   0  0  0  0  0  0  0  0  0  0  0  0
    9.4128  -14.8677   20.4094 C   0  0  0  0  0  0  0  0  0  0  0  0
   10.1654  -13.9410   20.8036 O   0  0  0  0  0  0  0  0  0  0  0  0
    6.5188  -12.2589   28.2353 O   0  0  0  0  0  0  0  0  0  0  0  0
    6.6977  -12.7783   26.9592 C   0  0  0  0  0  0  0  0  0  0  0  0
    7.3917  -12.0782   25.9821 C   0  0  0  0  0  0  0  0  0  0  0  0
    7.5487  -12.6297   24.7215 C   0  0  0  0  0  0  0  0  0  0  0  0
    7.0323  -13.8616   24.4079 C   0  0  0  0  0  0  0  0  0  0  0  0
    7.2065  -14.4267   23.0759 C   0  0  0  0  0  0  0  0  0  0  0  0
    8.5458  -15.0404   22.7898 C   0  0  2  0  0  0  0  0  0  0  0  0
    8.6096  -15.4937   21.4132 N   0  0  0  0  0  0  0  0  0  0  0  0
    8.9828  -16.0861   23.7276 C   0  0  0  0  0  0  0  0  0  0  0  0
    8.3880  -17.1841   23.8209 O   0  0  0  0  0  0  0  0  0  0  0  0
    6.3390  -14.5746   25.3645 C   0  0  0  0  0  0  0  0  0  0  0  0
    6.1940  -14.0088   26.6113 C   0  0  0  0  0  0  0  0  0  0  0  0
   10.1127  -15.8838   24.5694 N   0  0  0  0  0  0  0  0  0  0  0  0
   10.7317  -16.8050   25.4357 C   0  0  1  0  0  0  0  0  0  0  0  0
   12.1834  -16.7342   25.6682 C   0  0  0  0  0  0  0  0  0  0  0  0
   12.9469  -16.8548   24.4139 C   0  0  0  0  0  0  0  0  0  0  0  0
   14.1225  -16.4697   24.2203 O   0  0  0  0  0  0  0  0  0  0  0  0
   10.0056  -16.8858   26.7664 C   0  0  0  0  0  0  0  0  0  0  0  0
   10.3936  -17.7306   27.5914 O   0  0  0  0  0  0  0  0  0  0  0  0
   12.3209  -17.4521   23.3241 O   0  0  0  0  0  0  0  0  0  0  0  0
    8.9425  -16.0572   27.0773 O   0  0  0  0  0  0  0  0  0  0  0  0
  2  1  1  1
  3  4  1  0
  3  2  1  0
  5  6  1  0
  5  4  1  0
  6  7  1  0
  8  2  1  0
  8  9  2  0
 10 11  1  0
 11 12  2  0
 12 13  1  0
 14 15  1  0
 14 13  2  0
 16 17  1  0
 16 15  1  1
 17  8  1  0
 18 16  1  0
 19 18  2  0
 20 14  1  0
 21 20  2  0
 21 11  1  0
 22 18  1  0
 23 22  1  0
 24 25  1  0
 23 24  1  1
 25 26  2  0
 27 23  1  0
 27 30  1  0
 28 27  2  0
 29 25  1  0
M  END
$$$$
