KYD.pdb
     RDKit          3D

 30 30  0  0  1  0  0  0  0  0999 V2000
    6.8296  -16.1230   20.6064 N   0  0  0  0  0  0  0  0  0  0  0  0
    8.1840  -15.5860   20.4343 C   0  0  1  0  0  0  0  0  0  0  0  0
    8.1156  -14.2322   19.7582 C   0  0  0  0  0  0  0  0  0  0  0  0
    7.8660  -14.3308   18.2921 C   0  0  0  0  0  0  0  0  0  0  0  0
    8.0100  -13.0031   17.5805 C   0  0  0  0  0  0  0  0  0  0  0  0
    7.7339  -13.1761   16.1019 C   0  0  0  0  0  0  0  0  0  0  0  0
    7.8867  -11.8796   15.4524 N   0  0  0  0  0  0  0  0  0  0  0  0
    8.7763  -15.4822   21.7926 C   0  0  0  0  0  0  0  0  0  0  0  0
    9.9270  -15.0161   21.9906 O   0  0  0  0  0  0  0  0  0  0  0  0
    6.3940  -10.5321   27.0024 O   0  0  0  0  0  0  0  0  0  0  0  0
    6.6989  -11.8223   26.5870 C   0  0  0  0  0  0  0  0  0  0  0  0
    7.9940  -12.1873   26.2464 C   0  0  0  0  0  0  0  0  0  0  0  0
    8.2579  -13.4837   25.8367 C   0  0  0  0  0  0  0  0  0  0  0  0
    7.2649  -14.4272   25.7571 C   0  0  0  0  0  0  0  0  0  0  0  0
    7.5604  -15.7867   25.3232 C   0  0  0  0  0  0  0  0  0  0  0  0
    8.6377  -15.9293   24.2883 C   0  0  2  0  0  0  0  0  0  0  0  0
    8.0637  -15.9099   22.9561 N   0  0  0  0  0  0  0  0  0  0  0  0
    9.5517  -17.0676   24.4702 C   0  0  0  0  0  0  0  0  0  0  0  0
    9.2430  -18.2289   24.1180 O   0  0  0  0  0  0  0  0  0  0  0  0
    5.9704  -14.0854   26.0911 C   0  0  0  0  0  0  0  0  0  0  0  0
    5.7291  -12.7918   26.4959 C   0  0  0  0  0  0  0  0  0  0  0  0
   10.8353  -16.8846   25.0575 N   0  0  0  0  0  0  0  0  0  0  0  0
   11.8365  -17.8480   25.2848 C   0  0  1  0  0  0  0  0  0  0  0  0
   13.2214  -17.5826   24.8625 C   0  0  0  0  0  0  0  0  0  0  0  0
   14.1158  -18.7115   25.1728 C   0  0  0  0  0  0  0  0  0  0  0  0
   13.9550  -19.9035   24.8249 O   0  0  0  0  0  0  0  0  0  0  0  0
   11.8255  -18.3267   26.7253 C   0  0  0  0  0  0  0  0  0  0  0  0
   11.3488  -17.5688   27.5875 O   0  0  0  0  0  0  0  0  0  0  0  0
   15.2577  -18.4516   25.9244 O   0  0  0  0  0  0  0  0  0  0  0  0
   12.3239  -19.5630   27.0949 O   0  0  0  0  0  0  0  0  0  0  0  0
  2  1  1  1
  3  4  1  0
  3  2  1  0
  5  6  1  0
  5  4  1  0
  6  7  1  0
  8  2  1  0
  8  9  2  0
 10 11  1  0
 11 12  2  0
 12 13  1  0
 14 15  1  0
 14 13  2  0
 16 17  1  0
 16 15  1  1
 17  8  1  0
 18 16  1  0
 19 18  2  0
 20 14  1  0
 21 20  2  0
 21 11  1  0
 22 18  1  0
 23 22  1  0
 24 25  1  0
 23 24  1  1
 25 26  2  0
 27 23  1  0
 27 30  1  0
 28 27  2  0
 29 25  1  0
M  END
$$$$
