KYD.pdb
     RDKit          3D

 30 30  0  0  1  0  0  0  0  0999 V2000
    7.6135  -15.7187   18.8708 N   0  0  0  0  0  0  0  0  0  0  0  0
    8.8036  -14.8662   18.9677 C   0  0  1  0  0  0  0  0  0  0  0  0
    8.6143  -13.6251   18.1202 C   0  0  0  0  0  0  0  0  0  0  0  0
    7.7355  -13.8603   16.9396 C   0  0  0  0  0  0  0  0  0  0  0  0
    8.4584  -14.5336   15.7933 C   0  0  0  0  0  0  0  0  0  0  0  0
    7.5281  -14.6755   14.6071 C   0  0  0  0  0  0  0  0  0  0  0  0
    8.2351  -15.3941   13.5537 N   0  0  0  0  0  0  0  0  0  0  0  0
    8.9639  -14.5209   20.4034 C   0  0  0  0  0  0  0  0  0  0  0  0
    9.9224  -13.8248   20.8247 O   0  0  0  0  0  0  0  0  0  0  0  0
    7.1523  -12.7368   28.8483 O   0  0  0  0  0  0  0  0  0  0  0  0
    7.0954  -13.0882   27.5053 C   0  0  0  0  0  0  0  0  0  0  0  0
    6.5873  -14.3136   27.0973 C   0  0  0  0  0  0  0  0  0  0  0  0
    6.5476  -14.6272   25.7489 C   0  0  0  0  0  0  0  0  0  0  0  0
    7.0010  -13.7514   24.7950 C   0  0  0  0  0  0  0  0  0  0  0  0
    6.9522  -14.0979   23.3803 C   0  0  0  0  0  0  0  0  0  0  0  0
    8.1898  -14.7291   22.8128 C   0  0  2  0  0  0  0  0  0  0  0  0
    8.0295  -14.9648   21.3903 N   0  0  0  0  0  0  0  0  0  0  0  0
    8.6728  -15.9298   23.5121 C   0  0  0  0  0  0  0  0  0  0  0  0
    8.0513  -17.0162   23.4712 O   0  0  0  0  0  0  0  0  0  0  0  0
    7.5100  -12.5275   25.1789 C   0  0  0  0  0  0  0  0  0  0  0  0
    7.5407  -12.2352   26.5239 C   0  0  0  0  0  0  0  0  0  0  0  0
    9.8798  -15.8978   24.2660 N   0  0  0  0  0  0  0  0  0  0  0  0
   10.5018  -16.9514   24.9626 C   0  0  1  0  0  0  0  0  0  0  0  0
   11.9610  -17.1266   24.8801 C   0  0  0  0  0  0  0  0  0  0  0  0
   12.4804  -16.7846   23.5445 C   0  0  0  0  0  0  0  0  0  0  0  0
   13.2660  -15.8489   23.2706 O   0  0  0  0  0  0  0  0  0  0  0  0
   10.0655  -16.9861   26.4161 C   0  0  0  0  0  0  0  0  0  0  0  0
    9.4084  -16.0244   26.8502 O   0  0  0  0  0  0  0  0  0  0  0  0
   12.0723  -17.5642   22.4666 O   0  0  0  0  0  0  0  0  0  0  0  0
   10.3754  -18.0424   27.2536 O   0  0  0  0  0  0  0  0  0  0  0  0
  2  1  1  1
  3  4  1  0
  3  2  1  0
  5  6  1  0
  5  4  1  0
  6  7  1  0
  8  2  1  0
  8  9  2  0
 10 11  1  0
 11 12  2  0
 12 13  1  0
 14 15  1  0
 14 13  2  0
 16 17  1  0
 16 15  1  1
 17  8  1  0
 18 16  1  0
 19 18  2  0
 20 14  1  0
 21 20  2  0
 21 11  1  0
 22 18  1  0
 23 22  1  0
 24 25  1  0
 23 24  1  1
 25 26  2  0
 27 23  1  0
 27 30  1  0
 28 27  2  0
 29 25  1  0
M  END
$$$$
