KYD.pdb
     RDKit          3D

 30 30  0  0  1  0  0  0  0  0999 V2000
    7.7004  -14.9673   18.8091 N   0  0  0  0  0  0  0  0  0  0  0  0
    7.1429  -15.6217   19.9979 C   0  0  1  0  0  0  0  0  0  0  0  0
    7.1061  -17.1212   19.7867 C   0  0  0  0  0  0  0  0  0  0  0  0
    7.3959  -17.5134   18.3783 C   0  0  0  0  0  0  0  0  0  0  0  0
    7.1932  -18.9916   18.1258 C   0  0  0  0  0  0  0  0  0  0  0  0
    7.5800  -19.3310   16.7019 C   0  0  0  0  0  0  0  0  0  0  0  0
    7.4424  -20.7712   16.5205 N   0  0  0  0  0  0  0  0  0  0  0  0
    8.0244  -15.2580   21.1367 C   0  0  0  0  0  0  0  0  0  0  0  0
    9.2781  -15.2516   21.0414 O   0  0  0  0  0  0  0  0  0  0  0  0
   10.0867  -13.7561   29.7145 O   0  0  0  0  0  0  0  0  0  0  0  0
    9.4411  -13.8586   28.4886 C   0  0  0  0  0  0  0  0  0  0  0  0
    9.1185  -12.7336   27.7426 C   0  0  0  0  0  0  0  0  0  0  0  0
    8.4746  -12.8771   26.5249 C   0  0  0  0  0  0  0  0  0  0  0  0
    8.1431  -14.1131   26.0299 C   0  0  0  0  0  0  0  0  0  0  0  0
    7.4649  -14.2458   24.7468 C   0  0  0  0  0  0  0  0  0  0  0  0
    8.2870  -14.8007   23.6206 C   0  0  2  0  0  0  0  0  0  0  0  0
    7.4902  -14.8928   22.4117 N   0  0  0  0  0  0  0  0  0  0  0  0
    8.9921  -16.0601   23.9046 C   0  0  0  0  0  0  0  0  0  0  0  0
    8.4700  -17.1768   23.6847 O   0  0  0  0  0  0  0  0  0  0  0  0
    8.4546  -15.2449   26.7555 C   0  0  0  0  0  0  0  0  0  0  0  0
    9.0946  -15.0805   27.9633 C   0  0  0  0  0  0  0  0  0  0  0  0
   10.3097  -16.0519   24.4431 N   0  0  0  0  0  0  0  0  0  0  0  0
   11.3200  -17.0210   24.2930 C   0  0  1  0  0  0  0  0  0  0  0  0
   12.4348  -16.7823   23.3619 C   0  0  0  0  0  0  0  0  0  0  0  0
   13.3553  -17.9311   23.3016 C   0  0  0  0  0  0  0  0  0  0  0  0
   13.7648  -18.6061   24.2734 O   0  0  0  0  0  0  0  0  0  0  0  0
   11.8654  -17.4634   25.6387 C   0  0  0  0  0  0  0  0  0  0  0  0
   12.6925  -18.3911   25.6557 O   0  0  0  0  0  0  0  0  0  0  0  0
   13.8286  -18.3230   22.0531 O   0  0  0  0  0  0  0  0  0  0  0  0
   11.4718  -16.8700   26.8246 O   0  0  0  0  0  0  0  0  0  0  0  0
  2  1  1  6
  3  4  1  0
  3  2  1  0
  5  6  1  0
  5  4  1  0
  6  7  1  0
  8  2  1  0
  8  9  2  0
 10 11  1  0
 11 12  2  0
 12 13  1  0
 14 15  1  0
 14 13  2  0
 16 17  1  0
 16 15  1  1
 17  8  1  0
 18 16  1  0
 19 18  2  0
 20 14  1  0
 21 20  2  0
 21 11  1  0
 22 18  1  0
 23 22  1  0
 24 25  1  0
 23 24  1  6
 25 26  2  0
 27 23  1  0
 27 30  1  0
 28 27  2  0
 29 25  1  0
M  END
$$$$
