KYD.pdb
     RDKit          3D

 30 30  0  0  1  0  0  0  0  0999 V2000
    8.3891  -12.4913   18.9533 N   0  0  0  0  0  0  0  0  0  0  0  0
    7.9744  -13.8444   19.3401 C   0  0  1  0  0  0  0  0  0  0  0  0
    8.5478  -14.8532   18.3664 C   0  0  0  0  0  0  0  0  0  0  0  0
    7.9819  -14.7177   16.9943 C   0  0  0  0  0  0  0  0  0  0  0  0
    8.4722  -15.7914   16.0473 C   0  0  0  0  0  0  0  0  0  0  0  0
    7.7361  -15.6928   14.7278 C   0  0  0  0  0  0  0  0  0  0  0  0
    8.1174  -16.8338   13.9040 N   0  0  0  0  0  0  0  0  0  0  0  0
    8.4872  -14.0696   20.7158 C   0  0  0  0  0  0  0  0  0  0  0  0
    9.6491  -13.7377   21.0632 O   0  0  0  0  0  0  0  0  0  0  0  0
    6.5194  -11.0674   27.9643 O   0  0  0  0  0  0  0  0  0  0  0  0
    6.6464  -12.0588   26.9993 C   0  0  0  0  0  0  0  0  0  0  0  0
    7.6604  -13.0046   27.0606 C   0  0  0  0  0  0  0  0  0  0  0  0
    7.7537  -13.9774   26.0792 C   0  0  0  0  0  0  0  0  0  0  0  0
    6.8627  -14.0332   25.0373 C   0  0  0  0  0  0  0  0  0  0  0  0
    6.9762  -15.0635   24.0129 C   0  0  0  0  0  0  0  0  0  0  0  0
    8.1426  -14.9376   23.0772 C   0  0  2  0  0  0  0  0  0  0  0  0
    7.6807  -14.6804   21.7262 N   0  0  0  0  0  0  0  0  0  0  0  0
    9.1165  -16.0394   23.1184 C   0  0  0  0  0  0  0  0  0  0  0  0
    8.9491  -17.0973   22.4698 O   0  0  0  0  0  0  0  0  0  0  0  0
    5.8470  -13.1026   24.9573 C   0  0  0  0  0  0  0  0  0  0  0  0
    5.7717  -12.1440   25.9426 C   0  0  0  0  0  0  0  0  0  0  0  0
   10.2986  -15.9377   23.9049 N   0  0  0  0  0  0  0  0  0  0  0  0
   11.4321  -16.7726   23.8886 C   0  0  1  0  0  0  0  0  0  0  0  0
   12.7352  -16.2347   23.4650 C   0  0  0  0  0  0  0  0  0  0  0  0
   13.7752  -17.2777   23.4319 C   0  0  0  0  0  0  0  0  0  0  0  0
   13.6967  -18.3865   22.8556 O   0  0  0  0  0  0  0  0  0  0  0  0
   11.5901  -17.5153   25.2031 C   0  0  0  0  0  0  0  0  0  0  0  0
   12.1632  -18.6181   25.1840 O   0  0  0  0  0  0  0  0  0  0  0  0
   14.9706  -17.0284   24.0992 O   0  0  0  0  0  0  0  0  0  0  0  0
   11.1206  -17.0039   26.3995 O   0  0  0  0  0  0  0  0  0  0  0  0
  2  1  1  6
  3  4  1  0
  3  2  1  0
  5  6  1  0
  5  4  1  0
  6  7  1  0
  8  2  1  0
  8  9  2  0
 10 11  1  0
 11 12  2  0
 12 13  1  0
 14 15  1  0
 14 13  2  0
 16 17  1  0
 16 15  1  1
 17  8  1  0
 18 16  1  0
 19 18  2  0
 20 14  1  0
 21 20  2  0
 21 11  1  0
 22 18  1  0
 23 22  1  0
 24 25  1  0
 23 24  1  1
 25 26  2  0
 27 23  1  0
 27 30  1  0
 28 27  2  0
 29 25  1  0
M  END
$$$$
