KYD.pdb
     RDKit          3D

 30 30  0  0  1  0  0  0  0  0999 V2000
    8.9048  -14.6542   19.9211 N   0  0  0  0  0  0  0  0  0  0  0  0
    8.2378  -15.7366   20.6531 C   0  0  1  0  0  0  0  0  0  0  0  0
    8.5995  -17.0712   20.0346 C   0  0  0  0  0  0  0  0  0  0  0  0
    8.1860  -17.1770   18.6066 C   0  0  0  0  0  0  0  0  0  0  0  0
    8.3252  -18.5798   18.0564 C   0  0  0  0  0  0  0  0  0  0  0  0
    7.9080  -18.6085   16.6012 C   0  0  0  0  0  0  0  0  0  0  0  0
    7.8844  -19.9976   16.1586 N   0  0  0  0  0  0  0  0  0  0  0  0
    8.7046  -15.6492   22.0605 C   0  0  0  0  0  0  0  0  0  0  0  0
    9.9163  -15.4957   22.3589 O   0  0  0  0  0  0  0  0  0  0  0  0
    6.4065  -10.0139   26.2136 O   0  0  0  0  0  0  0  0  0  0  0  0
    6.5664  -11.3834   26.0426 C   0  0  0  0  0  0  0  0  0  0  0  0
    5.6928  -12.2933   26.6217 C   0  0  0  0  0  0  0  0  0  0  0  0
    5.8858  -13.6510   26.4280 C   0  0  0  0  0  0  0  0  0  0  0  0
    6.9271  -14.1269   25.6719 C   0  0  0  0  0  0  0  0  0  0  0  0
    7.1156  -15.5591   25.4790 C   0  0  0  0  0  0  0  0  0  0  0  0
    8.2086  -15.9588   24.5315 C   0  0  2  0  0  0  0  0  0  0  0  0
    7.7939  -15.7354   23.1594 N   0  0  0  0  0  0  0  0  0  0  0  0
    8.7556  -17.3111   24.7211 C   0  0  0  0  0  0  0  0  0  0  0  0
    8.5405  -18.2343   23.9028 O   0  0  0  0  0  0  0  0  0  0  0  0
    7.8074  -13.2396   25.0872 C   0  0  0  0  0  0  0  0  0  0  0  0
    7.5981  -11.8943   25.2919 C   0  0  0  0  0  0  0  0  0  0  0  0
    9.5604  -17.6193   25.8540 N   0  0  0  0  0  0  0  0  0  0  0  0
   10.7751  -18.3301   25.8942 C   0  0  1  0  0  0  0  0  0  0  0  0
   11.8573  -17.9898   24.9563 C   0  0  0  0  0  0  0  0  0  0  0  0
   13.0016  -18.9093   25.0813 C   0  0  0  0  0  0  0  0  0  0  0  0
   14.2030  -18.5849   25.2194 O   0  0  0  0  0  0  0  0  0  0  0  0
   11.3276  -18.4000   27.3064 C   0  0  0  0  0  0  0  0  0  0  0  0
   11.8699  -19.4584   27.6680 O   0  0  0  0  0  0  0  0  0  0  0  0
   12.7466  -20.2768   25.0456 O   0  0  0  0  0  0  0  0  0  0  0  0
   11.2438  -17.3343   28.1842 O   0  0  0  0  0  0  0  0  0  0  0  0
  2  1  1  6
  3  4  1  0
  3  2  1  0
  5  6  1  0
  5  4  1  0
  6  7  1  0
  8  2  1  0
  8  9  2  0
 10 11  1  0
 11 12  2  0
 12 13  1  0
 14 15  1  0
 14 13  2  0
 16 17  1  0
 16 15  1  1
 17  8  1  0
 18 16  1  0
 19 18  2  0
 20 14  1  0
 21 20  2  0
 21 11  1  0
 22 18  1  0
 23 22  1  0
 24 25  1  0
 23 24  1  6
 25 26  2  0
 27 23  1  0
 27 30  1  0
 28 27  2  0
 29 25  1  0
M  END
$$$$
