HGP.pdb
     RDKit          3D

 22 23  0  0  1  0  0  0  0  0999 V2000
   23.1558  -18.3676  -18.1097 N   0  0  0  0  0  0  0  0  0  0  0  0
   23.5273  -17.2459  -17.2770 C   0  0  1  0  0  0  0  0  0  0  0  0
   22.3248  -16.6887  -16.5378 C   0  0  0  0  0  0  0  0  0  0  0  0
   21.2757  -16.3805  -17.5286 C   0  0  0  0  0  0  0  0  0  0  0  0
   21.1720  -15.2589  -18.3077 C   0  0  0  0  0  0  0  0  0  0  0  0
   20.0652  -15.4088  -19.0563 N   0  0  0  0  0  0  0  0  0  0  0  0
   19.4774  -16.5757  -18.7751 C   0  0  0  0  0  0  0  0  0  0  0  0
   20.2385  -17.1681  -17.8262 N   0  0  0  0  0  0  0  0  0  0  0  0
   24.5623  -17.6365  -16.2856 C   0  0  0  0  0  0  0  0  0  0  0  0
   25.0284  -16.8183  -15.4620 O   0  0  0  0  0  0  0  0  0  0  0  0
   25.0222  -18.9785  -16.2887 N   0  0  0  0  0  0  0  0  0  0  0  0
   25.9377  -19.4247  -15.2642 C   0  0  0  0  0  0  0  0  0  0  0  0
   25.2478  -20.2640  -14.2529 C   0  0  0  0  0  0  0  0  0  0  0  0
   24.0380  -20.5386  -14.4459 O   0  0  0  0  0  0  0  0  0  0  0  0
   25.9290  -20.7421  -13.1045 N   0  0  0  0  0  0  0  0  0  0  0  0
   27.3163  -20.4565  -12.7946 C   0  0  0  0  0  0  0  0  0  0  0  0
   27.4245  -20.8185  -11.3297 C   0  0  0  0  0  0  0  0  0  0  0  0
   26.5561  -22.0832  -11.2964 C   0  0  0  0  0  0  0  0  0  0  0  0
   25.3473  -21.5818  -12.0748 C   0  0  1  0  0  0  0  0  0  0  0  0
   24.5849  -20.6945  -11.1488 C   0  0  0  0  0  0  0  0  0  0  0  0
   23.7206  -21.1792  -10.3666 O   0  0  0  0  0  0  0  0  0  0  0  0
   24.7725  -19.3233  -11.0913 O   0  0  0  0  0  0  0  0  0  0  0  0
  2  1  1  1
  2  3  1  0
  3  4  1  0
  4  5  2  0
  5  6  1  0
  7  6  1  0
  8  4  1  0
  8  7  2  0
  9  2  1  0
  9 11  1  0
 10  9  2  0
 12 11  1  0
 12 13  1  0
 13 15  1  0
 14 13  2  0
 15 16  1  0
 15 19  1  0
 16 17  1  0
 17 18  1  0
 19 20  1  1
 19 18  1  0
 20 22  1  0
 21 20  2  0
M  END
$$$$
