HGP.pdb
     RDKit          3D

 22 23  0  0  1  0  0  0  0  0999 V2000
   18.7974  -12.3810  -17.9280 N   0  0  0  0  0  0  0  0  0  0  0  0
   18.6661  -12.2209  -16.4974 C   0  0  1  0  0  0  0  0  0  0  0  0
   17.9511  -13.4061  -15.8755 C   0  0  0  0  0  0  0  0  0  0  0  0
   18.1207  -14.5684  -16.7684 C   0  0  0  0  0  0  0  0  0  0  0  0
   17.7188  -14.6800  -18.0730 C   0  0  0  0  0  0  0  0  0  0  0  0
   18.0800  -15.9077  -18.4855 N   0  0  0  0  0  0  0  0  0  0  0  0
   18.6890  -16.5630  -17.4926 C   0  0  0  0  0  0  0  0  0  0  0  0
   18.7075  -15.7209  -16.4337 N   0  0  0  0  0  0  0  0  0  0  0  0
   19.9957  -12.0693  -15.8528 C   0  0  0  0  0  0  0  0  0  0  0  0
   20.1120  -11.7997  -14.6367 O   0  0  0  0  0  0  0  0  0  0  0  0
   21.1536  -12.2385  -16.6547 N   0  0  0  0  0  0  0  0  0  0  0  0
   22.4611  -12.0199  -16.0808 C   0  0  0  0  0  0  0  0  0  0  0  0
   22.7937  -10.5742  -16.0318 C   0  0  0  0  0  0  0  0  0  0  0  0
   21.8662   -9.7523  -16.2331 O   0  0  0  0  0  0  0  0  0  0  0  0
   24.1147  -10.1312  -15.7665 N   0  0  0  0  0  0  0  0  0  0  0  0
   25.2057  -10.9971  -15.3642 C   0  0  0  0  0  0  0  0  0  0  0  0
   26.4319  -10.1477  -15.6165 C   0  0  0  0  0  0  0  0  0  0  0  0
   25.9178   -8.7804  -15.1463 C   0  0  0  0  0  0  0  0  0  0  0  0
   24.5711   -8.7574  -15.8565 C   0  0  1  0  0  0  0  0  0  0  0  0
   24.8542   -8.4709  -17.2931 C   0  0  0  0  0  0  0  0  0  0  0  0
   24.9627   -9.4154  -18.1236 O   0  0  0  0  0  0  0  0  0  0  0  0
   25.0110   -7.1877  -17.7907 O   0  0  0  0  0  0  0  0  0  0  0  0
  2  1  1  6
  2  3  1  0
  3  4  1  0
  4  5  2  0
  5  6  1  0
  7  6  1  0
  8  4  1  0
  8  7  2  0
  9  2  1  0
  9 11  1  0
 10  9  2  0
 12 11  1  0
 12 13  1  0
 13 15  1  0
 14 13  2  0
 15 16  1  0
 15 19  1  0
 16 17  1  0
 17 18  1  0
 19 20  1  6
 19 18  1  0
 20 22  1  0
 21 20  2  0
M  END
$$$$
