HGP.pdb
     RDKit          3D

 22 23  0  0  1  0  0  0  0  0999 V2000
   19.1054  -12.2861  -18.5885 N   0  0  0  0  0  0  0  0  0  0  0  0
   19.0372  -11.2214  -17.6132 C   0  0  1  0  0  0  0  0  0  0  0  0
   17.6914  -11.2040  -16.9123 C   0  0  0  0  0  0  0  0  0  0  0  0
   16.6446  -10.9804  -17.9278 C   0  0  0  0  0  0  0  0  0  0  0  0
   16.7651  -10.2984  -19.1094 C   0  0  0  0  0  0  0  0  0  0  0  0
   15.5632  -10.3497  -19.7100 N   0  0  0  0  0  0  0  0  0  0  0  0
   14.7017  -11.0345  -18.9516 C   0  0  0  0  0  0  0  0  0  0  0  0
   15.3855  -11.4198  -17.8495 N   0  0  0  0  0  0  0  0  0  0  0  0
   20.1084  -11.3617  -16.5937 C   0  0  0  0  0  0  0  0  0  0  0  0
   20.4122  -12.4726  -16.1051 O   0  0  0  0  0  0  0  0  0  0  0  0
   20.7943  -10.1925  -16.1755 N   0  0  0  0  0  0  0  0  0  0  0  0
   21.9754  -10.3103  -15.3522 C   0  0  0  0  0  0  0  0  0  0  0  0
   23.0545   -9.4074  -15.8249 C   0  0  0  0  0  0  0  0  0  0  0  0
   22.7190   -8.3118  -16.3382 O   0  0  0  0  0  0  0  0  0  0  0  0
   24.4211   -9.7664  -15.7027 N   0  0  0  0  0  0  0  0  0  0  0  0
   24.8945  -11.0158  -15.1398 C   0  0  0  0  0  0  0  0  0  0  0  0
   26.3301  -11.0855  -15.6121 C   0  0  0  0  0  0  0  0  0  0  0  0
   26.7400   -9.6149  -15.4565 C   0  0  0  0  0  0  0  0  0  0  0  0
   25.5428   -8.9461  -16.1182 C   0  0  1  0  0  0  0  0  0  0  0  0
   25.7137   -9.1300  -17.5890 C   0  0  0  0  0  0  0  0  0  0  0  0
   25.1899  -10.1182  -18.1744 O   0  0  0  0  0  0  0  0  0  0  0  0
   26.4368   -8.2531  -18.3808 O   0  0  0  0  0  0  0  0  0  0  0  0
  2  1  1  6
  2  3  1  0
  3  4  1  0
  4  5  2  0
  5  6  1  0
  7  6  1  0
  8  4  1  0
  8  7  2  0
  9  2  1  0
  9 11  1  0
 10  9  2  0
 12 11  1  0
 12 13  1  0
 13 15  1  0
 14 13  2  0
 15 16  1  0
 15 19  1  0
 16 17  1  0
 17 18  1  0
 19 20  1  6
 19 18  1  0
 20 22  1  0
 21 20  2  0
M  END
$$$$
