HGP.pdb
     RDKit          3D

 22 23  0  0  1  0  0  0  0  0999 V2000
   23.5466  -20.4521   -9.8072 N   0  0  0  0  0  0  0  0  0  0  0  0
   24.6279  -20.5804  -10.7580 C   0  0  1  0  0  0  0  0  0  0  0  0
   24.3609  -19.7614  -12.0072 C   0  0  0  0  0  0  0  0  0  0  0  0
   23.0441  -20.1544  -12.5445 C   0  0  0  0  0  0  0  0  0  0  0  0
   22.6376  -21.4093  -12.9130 C   0  0  0  0  0  0  0  0  0  0  0  0
   21.3687  -21.2944  -13.3426 N   0  0  0  0  0  0  0  0  0  0  0  0
   20.9701  -20.0217  -13.2565 C   0  0  0  0  0  0  0  0  0  0  0  0
   22.0188  -19.3256  -12.7601 N   0  0  0  0  0  0  0  0  0  0  0  0
   25.9169  -20.1434  -10.1629 C   0  0  0  0  0  0  0  0  0  0  0  0
   26.4084  -19.0193  -10.4075 O   0  0  0  0  0  0  0  0  0  0  0  0
   26.5940  -21.0392   -9.2961 N   0  0  0  0  0  0  0  0  0  0  0  0
   27.7256  -20.5751   -8.5274 C   0  0  0  0  0  0  0  0  0  0  0  0
   27.4339  -20.5956   -7.0722 C   0  0  0  0  0  0  0  0  0  0  0  0
   26.2746  -20.9150   -6.7113 O   0  0  0  0  0  0  0  0  0  0  0  0
   28.4292  -20.2658   -6.1172 N   0  0  0  0  0  0  0  0  0  0  0  0
   29.7497  -19.7661   -6.4468 C   0  0  0  0  0  0  0  0  0  0  0  0
   30.2394  -19.1930   -5.1351 C   0  0  0  0  0  0  0  0  0  0  0  0
   29.7049  -20.2499   -4.1593 C   0  0  0  0  0  0  0  0  0  0  0  0
   28.2793  -20.3772   -4.6788 C   0  0  1  0  0  0  0  0  0  0  0  0
   27.5465  -19.1658   -4.2081 C   0  0  0  0  0  0  0  0  0  0  0  0
   27.4868  -18.1336   -4.9324 O   0  0  0  0  0  0  0  0  0  0  0  0
   26.9047  -19.1002   -2.9823 O   0  0  0  0  0  0  0  0  0  0  0  0
  2  1  1  1
  2  3  1  0
  3  4  1  0
  4  5  2  0
  5  6  1  0
  7  6  1  0
  8  4  1  0
  8  7  2  0
  9  2  1  0
  9 11  1  0
 10  9  2  0
 12 11  1  0
 12 13  1  0
 13 15  1  0
 14 13  2  0
 15 16  1  0
 15 19  1  0
 16 17  1  0
 17 18  1  0
 19 20  1  1
 19 18  1  0
 20 22  1  0
 21 20  2  0
M  END
$$$$
