HGP.pdb
     RDKit          3D

 22 23  0  0  1  0  0  0  0  0999 V2000
   19.3737  -12.7552  -17.5251 N   0  0  0  0  0  0  0  0  0  0  0  0
   19.0306  -11.8911  -16.4182 C   0  0  1  0  0  0  0  0  0  0  0  0
   18.6680  -12.6967  -15.1844 C   0  0  0  0  0  0  0  0  0  0  0  0
   17.4752  -13.5074  -15.4963 C   0  0  0  0  0  0  0  0  0  0  0  0
   16.1831  -13.0708  -15.6213 C   0  0  0  0  0  0  0  0  0  0  0  0
   15.4359  -14.1510  -15.9093 N   0  0  0  0  0  0  0  0  0  0  0  0
   16.2092  -15.2395  -15.9683 C   0  0  0  0  0  0  0  0  0  0  0  0
   17.4714  -14.8260  -15.7102 N   0  0  0  0  0  0  0  0  0  0  0  0
   20.1550  -10.9797  -16.0838 C   0  0  0  0  0  0  0  0  0  0  0  0
   21.3431  -11.3715  -16.0816 O   0  0  0  0  0  0  0  0  0  0  0  0
   19.8531   -9.6318  -15.7609 N   0  0  0  0  0  0  0  0  0  0  0  0
   20.9260   -8.6893  -15.5431 C   0  0  0  0  0  0  0  0  0  0  0  0
   20.4007   -7.3390  -15.2211 C   0  0  0  0  0  0  0  0  0  0  0  0
   19.1548   -7.1877  -15.1869 O   0  0  0  0  0  0  0  0  0  0  0  0
   21.2739   -6.2523  -14.9601 N   0  0  0  0  0  0  0  0  0  0  0  0
   22.7199   -6.3249  -15.0347 C   0  0  0  0  0  0  0  0  0  0  0  0
   23.1364   -4.8715  -15.0882 C   0  0  0  0  0  0  0  0  0  0  0  0
   22.1427   -4.2661  -14.0878 C   0  0  0  0  0  0  0  0  0  0  0  0
   20.8572   -4.9154  -14.5822 C   0  0  1  0  0  0  0  0  0  0  0  0
   20.4713   -4.1951  -15.8306 C   0  0  0  0  0  0  0  0  0  0  0  0
   20.8373   -4.6295  -16.9579 O   0  0  0  0  0  0  0  0  0  0  0  0
   19.7093   -3.0384  -15.8302 O   0  0  0  0  0  0  0  0  0  0  0  0
  2  1  1  6
  2  3  1  0
  3  4  1  0
  4  5  2  0
  5  6  1  0
  7  6  1  0
  8  4  1  0
  8  7  2  0
  9  2  1  0
  9 11  1  0
 10  9  2  0
 12 11  1  0
 12 13  1  0
 13 15  1  0
 14 13  2  0
 15 16  1  0
 15 19  1  0
 16 17  1  0
 17 18  1  0
 19 20  1  6
 19 18  1  0
 20 22  1  0
 21 20  2  0
M  END
$$$$
