DSY.pdb
     RDKit          3D

 27 27  0  0  1  0  0  0  0  0999 V2000
   10.2495  -16.9592   17.2663 N   0  0  0  0  0  0  0  0  0  0  0  0
    9.7165  -17.5792   18.4537 C   0  0  1  0  0  0  0  0  0  0  0  0
   10.6455  -18.6530   19.0052 C   0  0  0  0  0  0  0  0  0  0  0  0
   10.8775  -19.6858   17.9637 C   0  0  0  0  0  0  0  0  0  0  0  0
   12.0031  -19.8272   17.3834 O   0  0  0  0  0  0  0  0  0  0  0  0
    9.3147  -16.5821   19.4497 C   0  0  0  0  0  0  0  0  0  0  0  0
   10.1658  -15.6856   19.7744 O   0  0  0  0  0  0  0  0  0  0  0  0
    9.8704  -20.5648   17.5586 O   0  0  0  0  0  0  0  0  0  0  0  0
    5.7298  -16.7180   21.3819 O   0  0  0  0  0  0  0  0  0  0  0  0
    6.2947  -15.4370   21.2573 C   0  0  0  0  0  0  0  0  0  0  0  0
    7.7782  -15.6090   21.0887 C   0  0  2  0  0  0  0  0  0  0  0  0
    8.0318  -16.5662   20.0667 N   0  0  0  0  0  0  0  0  0  0  0  0
    8.3731  -15.9650   22.3992 C   0  0  0  0  0  0  0  0  0  0  0  0
    8.7086  -17.1649   22.5627 O   0  0  0  0  0  0  0  0  0  0  0  0
   10.8952  -15.1830   30.9506 O   0  0  0  0  0  0  0  0  0  0  0  0
   10.4280  -14.9963   29.6570 C   0  0  0  0  0  0  0  0  0  0  0  0
   10.5947  -15.9143   28.6569 C   0  0  0  0  0  0  0  0  0  0  0  0
   10.1189  -15.7019   27.3769 C   0  0  0  0  0  0  0  0  0  0  0  0
    9.4437  -14.5186   27.0755 C   0  0  0  0  0  0  0  0  0  0  0  0
    8.9609  -14.3317   25.7220 C   0  0  0  0  0  0  0  0  0  0  0  0
    9.0529  -15.5003   24.7968 C   0  0  2  0  0  0  0  0  0  0  0  0
    8.5873  -15.0636   23.4682 N   0  0  0  0  0  0  0  0  0  0  0  0
    8.1246  -16.5536   25.2690 C   0  0  0  0  0  0  0  0  0  0  0  0
    6.7587  -16.3787   25.1363 O   0  0  0  0  0  0  0  0  0  0  0  0
    9.2948  -13.6188   28.1068 C   0  0  0  0  0  0  0  0  0  0  0  0
    9.7658  -13.8233   29.3834 C   0  0  0  0  0  0  0  0  0  0  0  0
    8.5108  -17.6267   25.7975 O   0  0  0  0  0  0  0  0  0  0  0  0
  2  3  1  0
  2  1  1  6
  4  3  1  0
  4  8  1  0
  5  4  2  0
  6  2  1  0
  7  6  2  0
 10  9  1  0
 11 10  1  1
 11 12  1  0
 12  6  1  0
 13 22  1  0
 13 11  1  0
 14 13  2  0
 16 15  1  0
 17 16  2  0
 18 17  1  0
 19 25  1  0
 19 18  2  0
 20 19  1  0
 21 20  1  1
 21 23  1  0
 21 22  1  0
 23 24  1  0
 25 26  2  0
 26 16  1  0
 27 23  2  0
M  END
$$$$
