DSY.pdb
     RDKit          3D

 27 27  0  0  1  0  0  0  0  0999 V2000
    9.6409  -18.8340   19.8705 N   0  0  0  0  0  0  0  0  0  0  0  0
   10.7099  -17.8684   19.9309 C   0  0  1  0  0  0  0  0  0  0  0  0
   11.3958  -17.6885   18.5829 C   0  0  0  0  0  0  0  0  0  0  0  0
   11.9490  -18.9914   18.1339 C   0  0  0  0  0  0  0  0  0  0  0  0
   12.9974  -19.5002   18.6494 O   0  0  0  0  0  0  0  0  0  0  0  0
   10.2672  -16.6100   20.5374 C   0  0  0  0  0  0  0  0  0  0  0  0
   11.1444  -15.7019   20.7367 O   0  0  0  0  0  0  0  0  0  0  0  0
   11.3493  -19.7366   17.1160 O   0  0  0  0  0  0  0  0  0  0  0  0
    6.3843  -15.8314   21.7373 O   0  0  0  0  0  0  0  0  0  0  0  0
    7.1344  -14.7853   21.1731 C   0  0  0  0  0  0  0  0  0  0  0  0
    8.5859  -15.0737   21.4358 C   0  0  2  0  0  0  0  0  0  0  0  0
    8.9176  -16.3544   20.9115 N   0  0  0  0  0  0  0  0  0  0  0  0
    8.8476  -14.9390   22.8888 C   0  0  0  0  0  0  0  0  0  0  0  0
    8.5940  -13.8240   23.4100 O   0  0  0  0  0  0  0  0  0  0  0  0
    5.6563  -10.8623   26.8019 O   0  0  0  0  0  0  0  0  0  0  0  0
    6.2631  -12.0870   26.5597 C   0  0  0  0  0  0  0  0  0  0  0  0
    5.5656  -13.2484   26.3725 C   0  0  0  0  0  0  0  0  0  0  0  0
    6.1962  -14.4545   26.1330 C   0  0  0  0  0  0  0  0  0  0  0  0
    7.5894  -14.5095   26.0766 C   0  0  0  0  0  0  0  0  0  0  0  0
    8.2141  -15.7926   25.8248 C   0  0  0  0  0  0  0  0  0  0  0  0
    9.5572  -15.7816   25.1721 C   0  0  2  0  0  0  0  0  0  0  0  0
    9.3577  -15.9616   23.7228 N   0  0  0  0  0  0  0  0  0  0  0  0
   10.3323  -16.9450   25.6618 C   0  0  0  0  0  0  0  0  0  0  0  0
   10.6759  -17.9614   24.7885 O   0  0  0  0  0  0  0  0  0  0  0  0
    8.2573  -13.3212   26.2694 C   0  0  0  0  0  0  0  0  0  0  0  0
    7.6364  -12.1168   26.5084 C   0  0  0  0  0  0  0  0  0  0  0  0
   10.7081  -17.0704   26.8547 O   0  0  0  0  0  0  0  0  0  0  0  0
  2  3  1  0
  2  1  1  6
  4  3  1  0
  4  8  1  0
  5  4  2  0
  6  2  1  0
  7  6  2  0
 10  9  1  0
 11 10  1  1
 11 12  1  0
 12  6  1  0
 13 22  1  0
 13 11  1  0
 14 13  2  0
 16 15  1  0
 17 16  2  0
 18 17  1  0
 19 25  1  0
 19 18  2  0
 20 19  1  0
 21 20  1  1
 21 23  1  0
 21 22  1  0
 23 24  1  0
 25 26  2  0
 26 16  1  0
 27 23  2  0
M  END
$$$$
