DSY.pdb
     RDKit          3D

 27 27  0  0  1  0  0  0  0  0999 V2000
   11.3570  -19.2690   19.6935 N   0  0  0  0  0  0  0  0  0  0  0  0
   11.1945  -17.8812   20.0484 C   0  0  1  0  0  0  0  0  0  0  0  0
   11.1639  -16.9767   18.8233 C   0  0  0  0  0  0  0  0  0  0  0  0
   12.5423  -16.8170   18.2944 C   0  0  0  0  0  0  0  0  0  0  0  0
   13.5749  -16.9943   19.0196 O   0  0  0  0  0  0  0  0  0  0  0  0
   10.0581  -17.6844   20.9524 C   0  0  0  0  0  0  0  0  0  0  0  0
    8.8873  -17.6477   20.4409 O   0  0  0  0  0  0  0  0  0  0  0  0
   12.7866  -16.4611   16.9659 O   0  0  0  0  0  0  0  0  0  0  0  0
    8.8702  -19.7469   23.6897 O   0  0  0  0  0  0  0  0  0  0  0  0
    8.2189  -18.7238   22.9795 C   0  0  0  0  0  0  0  0  0  0  0  0
    9.0200  -17.4648   23.1588 C   0  0  2  0  0  0  0  0  0  0  0  0
   10.1965  -17.5335   22.3613 N   0  0  0  0  0  0  0  0  0  0  0  0
    9.2901  -17.2684   24.6033 C   0  0  0  0  0  0  0  0  0  0  0  0
   10.4149  -17.6369   25.0253 O   0  0  0  0  0  0  0  0  0  0  0  0
    6.6554  -10.6543   25.0591 O   0  0  0  0  0  0  0  0  0  0  0  0
    6.9274  -11.8690   25.6731 C   0  0  0  0  0  0  0  0  0  0  0  0
    8.1749  -12.2345   26.0982 C   0  0  0  0  0  0  0  0  0  0  0  0
    8.4172  -13.4513   26.7069 C   0  0  0  0  0  0  0  0  0  0  0  0
    7.3677  -14.3497   26.9033 C   0  0  0  0  0  0  0  0  0  0  0  0
    7.6614  -15.6160   27.5439 C   0  0  0  0  0  0  0  0  0  0  0  0
    8.7409  -16.4525   26.9398 C   0  0  2  0  0  0  0  0  0  0  0  0
    8.3843  -16.7040   25.5319 N   0  0  0  0  0  0  0  0  0  0  0  0
    8.7697  -17.7620   27.6316 C   0  0  0  0  0  0  0  0  0  0  0  0
    9.3632  -17.8711   28.8764 O   0  0  0  0  0  0  0  0  0  0  0  0
    6.1269  -13.9474   26.4631 C   0  0  0  0  0  0  0  0  0  0  0  0
    5.8781  -12.7378   25.8562 C   0  0  0  0  0  0  0  0  0  0  0  0
    8.2746  -18.8099   27.1450 O   0  0  0  0  0  0  0  0  0  0  0  0
  2  3  1  0
  2  1  1  6
  4  3  1  0
  4  8  1  0
  5  4  2  0
  6  2  1  0
  7  6  2  0
 10  9  1  0
 11 10  1  1
 11 12  1  0
 12  6  1  0
 13 22  1  0
 13 11  1  0
 14 13  2  0
 16 15  1  0
 17 16  2  0
 18 17  1  0
 19 25  1  0
 19 18  2  0
 20 19  1  0
 21 20  1  1
 21 23  1  0
 21 22  1  0
 23 24  1  0
 25 26  2  0
 26 16  1  0
 27 23  2  0
M  END
$$$$
