DSY.pdb
     RDKit          3D

 27 27  0  0  1  0  0  0  0  0999 V2000
   10.3467  -17.7525   20.0741 N   0  0  0  0  0  0  0  0  0  0  0  0
   10.9376  -17.1283   21.2316 C   0  0  1  0  0  0  0  0  0  0  0  0
   12.4448  -16.9634   21.0864 C   0  0  0  0  0  0  0  0  0  0  0  0
   13.0956  -18.2961   21.1611 C   0  0  0  0  0  0  0  0  0  0  0  0
   12.6213  -19.2473   21.8638 O   0  0  0  0  0  0  0  0  0  0  0  0
   10.2429  -15.8889   21.5905 C   0  0  0  0  0  0  0  0  0  0  0  0
   10.4453  -14.8583   20.8621 O   0  0  0  0  0  0  0  0  0  0  0  0
   14.2704  -18.5840   20.4625 O   0  0  0  0  0  0  0  0  0  0  0  0
    6.8557  -15.2428   21.6231 O   0  0  0  0  0  0  0  0  0  0  0  0
    7.8253  -14.2308   21.7286 C   0  0  0  0  0  0  0  0  0  0  0  0
    8.6851  -14.5474   22.9200 C   0  0  2  0  0  0  0  0  0  0  0  0
    9.3610  -15.7806   22.7029 N   0  0  0  0  0  0  0  0  0  0  0  0
    7.8408  -14.5374   24.1386 C   0  0  0  0  0  0  0  0  0  0  0  0
    7.1232  -15.5491   24.3399 O   0  0  0  0  0  0  0  0  0  0  0  0
   12.2149  -16.6266   28.4118 O   0  0  0  0  0  0  0  0  0  0  0  0
   11.1183  -15.8047   28.1907 C   0  0  0  0  0  0  0  0  0  0  0  0
    9.8497  -16.1180   28.5943 C   0  0  0  0  0  0  0  0  0  0  0  0
    8.7757  -15.2802   28.3605 C   0  0  0  0  0  0  0  0  0  0  0  0
    8.9719  -14.0710   27.6925 C   0  0  0  0  0  0  0  0  0  0  0  0
    7.8212  -13.2202   27.4648 C   0  0  0  0  0  0  0  0  0  0  0  0
    6.9511  -13.5468   26.2960 C   0  0  2  0  0  0  0  0  0  0  0  0
    7.7830  -13.4836   25.0808 N   0  0  0  0  0  0  0  0  0  0  0  0
    5.9074  -12.5027   26.1748 C   0  0  0  0  0  0  0  0  0  0  0  0
    5.9531  -11.6007   25.1269 O   0  0  0  0  0  0  0  0  0  0  0  0
   10.2617  -13.7896   27.3018 C   0  0  0  0  0  0  0  0  0  0  0  0
   11.3357  -14.6186   27.5309 C   0  0  0  0  0  0  0  0  0  0  0  0
    4.9560  -12.3813   26.9872 O   0  0  0  0  0  0  0  0  0  0  0  0
  2  3  1  0
  2  1  1  6
  4  3  1  0
  4  8  1  0
  5  4  2  0
  6  2  1  0
  7  6  2  0
 10  9  1  0
 11 10  1  6
 11 12  1  0
 12  6  1  0
 13 22  1  0
 13 11  1  0
 14 13  2  0
 16 15  1  0
 17 16  2  0
 18 17  1  0
 19 25  1  0
 19 18  2  0
 20 19  1  0
 21 20  1  1
 21 23  1  0
 21 22  1  0
 23 24  1  0
 25 26  2  0
 26 16  1  0
 27 23  2  0
M  END
$$$$
