DSY.pdb
     RDKit          3D

 27 27  0  0  1  0  0  0  0  0999 V2000
   11.2252  -14.5111   17.9311 N   0  0  0  0  0  0  0  0  0  0  0  0
   11.5214  -14.9608   19.2685 C   0  0  1  0  0  0  0  0  0  0  0  0
   12.6904  -14.2013   19.8822 C   0  0  0  0  0  0  0  0  0  0  0  0
   13.9432  -14.5712   19.1760 C   0  0  0  0  0  0  0  0  0  0  0  0
   14.2506  -15.7816   18.9230 O   0  0  0  0  0  0  0  0  0  0  0  0
   10.3227  -14.9749   20.1114 C   0  0  0  0  0  0  0  0  0  0  0  0
    9.5195  -13.9845   20.0243 O   0  0  0  0  0  0  0  0  0  0  0  0
   14.8606  -13.6090   18.7473 O   0  0  0  0  0  0  0  0  0  0  0  0
    8.4692  -18.1687   21.3652 O   0  0  0  0  0  0  0  0  0  0  0  0
    7.8342  -16.9166   21.4310 C   0  0  0  0  0  0  0  0  0  0  0  0
    8.8658  -15.9050   21.8453 C   0  0  2  0  0  0  0  0  0  0  0  0
   10.0143  -16.0313   21.0146 N   0  0  0  0  0  0  0  0  0  0  0  0
    9.1536  -16.0755   23.2896 C   0  0  0  0  0  0  0  0  0  0  0  0
   10.3268  -16.4018   23.5996 O   0  0  0  0  0  0  0  0  0  0  0  0
    5.6432  -10.2992   26.2449 O   0  0  0  0  0  0  0  0  0  0  0  0
    6.0525  -11.6241   26.3077 C   0  0  0  0  0  0  0  0  0  0  0  0
    5.4562  -12.6303   25.5988 C   0  0  0  0  0  0  0  0  0  0  0  0
    5.8848  -13.9415   25.6806 C   0  0  0  0  0  0  0  0  0  0  0  0
    6.9595  -14.2695   26.5080 C   0  0  0  0  0  0  0  0  0  0  0  0
    7.3789  -15.6553   26.5684 C   0  0  0  0  0  0  0  0  0  0  0  0
    8.5704  -16.0440   25.7565 C   0  0  2  0  0  0  0  0  0  0  0  0
    8.2146  -15.9010   24.3333 N   0  0  0  0  0  0  0  0  0  0  0  0
    8.8637  -17.4755   25.9996 C   0  0  0  0  0  0  0  0  0  0  0  0
    9.6962  -17.8412   27.0422 O   0  0  0  0  0  0  0  0  0  0  0  0
    7.5344  -13.2311   27.2055 C   0  0  0  0  0  0  0  0  0  0  0  0
    7.1132  -11.9234   27.1291 C   0  0  0  0  0  0  0  0  0  0  0  0
    8.3904  -18.4050   25.2983 O   0  0  0  0  0  0  0  0  0  0  0  0
  2  3  1  0
  2  1  1  6
  4  3  1  0
  4  8  1  0
  5  4  2  0
  6  2  1  0
  7  6  2  0
 10  9  1  0
 11 10  1  6
 11 12  1  0
 12  6  1  0
 13 22  1  0
 13 11  1  0
 14 13  2  0
 16 15  1  0
 17 16  2  0
 18 17  1  0
 19 25  1  0
 19 18  2  0
 20 19  1  0
 21 20  1  1
 21 23  1  0
 21 22  1  0
 23 24  1  0
 25 26  2  0
 26 16  1  0
 27 23  2  0
M  END
$$$$
