DSY.pdb
     RDKit          3D

 27 27  0  0  1  0  0  0  0  0999 V2000
   10.3219  -19.1369   17.8353 N   0  0  0  0  0  0  0  0  0  0  0  0
   10.2286  -17.7168   17.6052 C   0  0  1  0  0  0  0  0  0  0  0  0
    9.7162  -17.3958   16.2071 C   0  0  0  0  0  0  0  0  0  0  0  0
   10.7663  -17.7250   15.2101 C   0  0  0  0  0  0  0  0  0  0  0  0
   11.8834  -18.2403   15.5422 O   0  0  0  0  0  0  0  0  0  0  0  0
    9.4830  -17.0445   18.6728 C   0  0  0  0  0  0  0  0  0  0  0  0
    8.5299  -16.2628   18.3348 O   0  0  0  0  0  0  0  0  0  0  0  0
   10.5887  -17.4872   13.8451 O   0  0  0  0  0  0  0  0  0  0  0  0
    6.6771  -18.1259   21.6635 O   0  0  0  0  0  0  0  0  0  0  0  0
    7.7229  -18.2532   20.7333 C   0  0  0  0  0  0  0  0  0  0  0  0
    8.6976  -17.1383   20.9898 C   0  0  2  0  0  0  0  0  0  0  0  0
    9.7686  -17.2203   20.0564 N   0  0  0  0  0  0  0  0  0  0  0  0
    9.1351  -17.1981   22.4051 C   0  0  0  0  0  0  0  0  0  0  0  0
    9.7691  -18.2233   22.7601 O   0  0  0  0  0  0  0  0  0  0  0  0
   10.8838  -14.2595   30.7398 O   0  0  0  0  0  0  0  0  0  0  0  0
   10.4377  -14.4156   29.4347 C   0  0  0  0  0  0  0  0  0  0  0  0
    9.6273  -13.5127   28.8035 C   0  0  0  0  0  0  0  0  0  0  0  0
    9.1979  -13.6937   27.5024 C   0  0  0  0  0  0  0  0  0  0  0  0
    9.5935  -14.8284   26.7931 C   0  0  0  0  0  0  0  0  0  0  0  0
    9.1217  -14.9837   25.4318 C   0  0  0  0  0  0  0  0  0  0  0  0
    9.4117  -16.2815   24.7525 C   0  0  2  0  0  0  0  0  0  0  0  0
    8.8929  -16.1974   23.3753 N   0  0  0  0  0  0  0  0  0  0  0  0
    8.6638  -17.3567   25.4443 C   0  0  0  0  0  0  0  0  0  0  0  0
    9.3271  -18.2163   26.3016 O   0  0  0  0  0  0  0  0  0  0  0  0
   10.4089  -15.7143   27.4606 C   0  0  0  0  0  0  0  0  0  0  0  0
   10.8403  -15.5409   28.7556 C   0  0  0  0  0  0  0  0  0  0  0  0
    7.4293  -17.5425   25.2973 O   0  0  0  0  0  0  0  0  0  0  0  0
  2  3  1  0
  2  1  1  1
  4  3  1  0
  4  8  1  0
  5  4  2  0
  6  2  1  0
  7  6  2  0
 10  9  1  0
 11 10  1  6
 11 12  1  0
 12  6  1  0
 13 22  1  0
 13 11  1  0
 14 13  2  0
 16 15  1  0
 17 16  2  0
 18 17  1  0
 19 25  1  0
 19 18  2  0
 20 19  1  0
 21 20  1  1
 21 23  1  0
 21 22  1  0
 23 24  1  0
 25 26  2  0
 26 16  1  0
 27 23  2  0
M  END
$$$$
