TDR.pdb
     RDKit          3D

 27 26  0  0  1  0  0  0  0  0999 V2000
    8.1110  -12.6275   19.7372 C   0  0  0  0  0  0  0  0  0  0  0  0
    7.5473  -13.5853   18.7267 C   0  0  1  0  0  0  0  0  0  0  0  0
    6.6029  -12.9166   17.9588 O   0  0  0  0  0  0  0  0  0  0  0  0
    8.6534  -14.1694   17.8381 C   0  0  2  0  0  0  0  0  0  0  0  0
    8.0746  -15.0025   16.8158 N   0  0  0  0  0  0  0  0  0  0  0  0
    9.5323  -14.9361   18.7635 C   0  0  0  0  0  0  0  0  0  0  0  0
    9.1563  -16.0771   19.1209 O   0  0  0  0  0  0  0  0  0  0  0  0
   10.7593  -14.4476   19.2556 N   0  0  0  0  0  0  0  0  0  0  0  0
   11.6573  -15.1577   20.1365 C   0  0  1  0  0  0  0  0  0  0  0  0
   13.0005  -14.4781   20.0644 C   0  0  0  0  0  0  0  0  0  0  0  0
   13.9868  -15.2848   20.8186 C   0  0  0  0  0  0  0  0  0  0  0  0
   13.6485  -16.3762   21.3367 O   0  0  0  0  0  0  0  0  0  0  0  0
   11.1200  -15.3274   21.4946 C   0  0  0  0  0  0  0  0  0  0  0  0
   11.1228  -14.3575   22.2985 O   0  0  0  0  0  0  0  0  0  0  0  0
   15.3189  -14.8876   20.9946 O   0  0  0  0  0  0  0  0  0  0  0  0
    6.2995  -21.2514   25.9918 N   0  0  0  0  0  0  0  0  0  0  0  0
    6.5911  -20.8140   24.6846 C   0  0  0  0  0  0  0  0  0  0  0  0
    5.8448  -21.1624   23.6848 N   0  0  0  0  0  0  0  0  0  0  0  0
    7.7081  -19.9823   24.4224 N   0  0  0  0  0  0  0  0  0  0  0  0
    8.6085  -19.5538   25.4601 C   0  0  0  0  0  0  0  0  0  0  0  0
    9.0907  -18.1666   25.1080 C   0  0  0  0  0  0  0  0  0  0  0  0
    9.5611  -18.0755   23.6752 C   0  0  0  0  0  0  0  0  0  0  0  0
   10.1329  -16.7259   23.3740 C   0  0  2  0  0  0  0  0  0  0  0  0
   10.5745  -16.5499   22.0044 N   0  0  0  0  0  0  0  0  0  0  0  0
   11.2393  -16.3817   24.3272 C   0  0  0  0  0  0  0  0  0  0  0  0
   10.9682  -15.5718   25.2693 O   0  0  0  0  0  0  0  0  0  0  0  0
   12.5100  -16.8660   24.2648 O   0  0  0  0  0  0  0  0  0  0  0  0
  2  1  1  1
  2  3  1  0
  4  2  1  0
  4  5  1  6
  6  4  1  0
  6  7  2  0
  8  6  1  0
  9  8  1  0
  9 10  1  1
 10 11  1  0
 11 12  2  0
 13  9  1  0
 14 13  2  0
 15 11  1  0
 17 18  2  0
 17 16  1  0
 19 17  1  0
 20 19  1  0
 21 20  1  0
 22 21  1  0
 23 22  1  6
 23 24  1  0
 24 13  1  0
 25 23  1  0
 26 25  2  0
 27 25  1  0
M  END
$$$$
