TDR.pdb
     RDKit          3D

 27 26  0  0  1  0  0  0  0  0999 V2000
   10.9517  -13.8321   18.9181 C   0  0  0  0  0  0  0  0  0  0  0  0
   10.1621  -14.7791   18.0601 C   0  0  1  0  0  0  0  0  0  0  0  0
    9.8600  -14.1463   16.8614 O   0  0  0  0  0  0  0  0  0  0  0  0
   10.9389  -16.0778   17.8069 C   0  0  2  0  0  0  0  0  0  0  0  0
   10.1417  -16.9820   17.0188 N   0  0  0  0  0  0  0  0  0  0  0  0
   11.2411  -16.6210   19.1598 C   0  0  0  0  0  0  0  0  0  0  0  0
   10.2798  -17.0005   19.8691 O   0  0  0  0  0  0  0  0  0  0  0  0
   12.5459  -16.7302   19.6813 N   0  0  0  0  0  0  0  0  0  0  0  0
   12.8844  -17.1055   21.0345 C   0  0  1  0  0  0  0  0  0  0  0  0
   14.3873  -17.1623   21.1306 C   0  0  0  0  0  0  0  0  0  0  0  0
   14.7615  -17.8296   22.3984 C   0  0  0  0  0  0  0  0  0  0  0  0
   13.8736  -18.2423   23.1827 O   0  0  0  0  0  0  0  0  0  0  0  0
   12.2293  -16.2654   22.0480 C   0  0  0  0  0  0  0  0  0  0  0  0
   12.4452  -15.0245   22.0725 O   0  0  0  0  0  0  0  0  0  0  0  0
   16.0923  -18.0327   22.7869 O   0  0  0  0  0  0  0  0  0  0  0  0
    7.9599  -13.9101   18.8295 N   0  0  0  0  0  0  0  0  0  0  0  0
    8.1283  -13.1740   20.0190 C   0  0  0  0  0  0  0  0  0  0  0  0
    8.1072  -11.8788   20.0081 N   0  0  0  0  0  0  0  0  0  0  0  0
    8.3269  -13.8252   21.2617 N   0  0  0  0  0  0  0  0  0  0  0  0
    8.2551  -15.2559   21.4006 C   0  0  0  0  0  0  0  0  0  0  0  0
    8.4811  -15.5896   22.8561 C   0  0  0  0  0  0  0  0  0  0  0  0
    9.7135  -14.9130   23.4092 C   0  0  0  0  0  0  0  0  0  0  0  0
   10.6563  -15.9061   24.0123 C   0  0  2  0  0  0  0  0  0  0  0  0
   11.3331  -16.7556   23.0522 N   0  0  0  0  0  0  0  0  0  0  0  0
    9.9705  -16.7400   25.0543 C   0  0  0  0  0  0  0  0  0  0  0  0
    9.3275  -16.1264   25.9637 O   0  0  0  0  0  0  0  0  0  0  0  0
    9.9814  -18.1003   25.1051 O   0  0  0  0  0  0  0  0  0  0  0  0
  2  1  1  1
  2  3  1  0
  4  2  1  0
  4  5  1  6
  6  4  1  0
  6  7  2  0
  8  6  1  0
  9  8  1  0
  9 10  1  6
 10 11  1  0
 11 12  2  0
 13  9  1  0
 14 13  2  0
 15 11  1  0
 17 18  2  0
 17 16  1  0
 19 17  1  0
 20 19  1  0
 21 20  1  0
 22 21  1  0
 23 22  1  6
 23 24  1  0
 24 13  1  0
 25 23  1  0
 26 25  2  0
 27 25  1  0
M  END
$$$$
