TDR.pdb
     RDKit          3D

 27 26  0  0  1  0  0  0  0  0999 V2000
    7.9194  -20.8816   20.5128 C   0  0  0  0  0  0  0  0  0  0  0  0
    8.4414  -19.6951   19.7537 C   0  0  1  0  0  0  0  0  0  0  0  0
    7.6946  -19.5467   18.5924 O   0  0  0  0  0  0  0  0  0  0  0  0
    8.3790  -18.4202   20.6051 C   0  0  2  0  0  0  0  0  0  0  0  0
    8.2663  -17.2647   19.7530 N   0  0  0  0  0  0  0  0  0  0  0  0
    9.6394  -18.4190   21.3977 C   0  0  0  0  0  0  0  0  0  0  0  0
    9.8858  -19.4195   22.1115 O   0  0  0  0  0  0  0  0  0  0  0  0
   10.5651  -17.3563   21.3867 N   0  0  0  0  0  0  0  0  0  0  0  0
   11.7883  -17.2956   22.1526 C   0  0  1  0  0  0  0  0  0  0  0  0
   12.7354  -16.3735   21.4287 C   0  0  0  0  0  0  0  0  0  0  0  0
   13.3903  -17.1235   20.3328 C   0  0  0  0  0  0  0  0  0  0  0  0
   13.3327  -18.3763   20.3002 O   0  0  0  0  0  0  0  0  0  0  0  0
   11.5672  -16.9702   23.5693 C   0  0  0  0  0  0  0  0  0  0  0  0
   12.5513  -16.7903   24.3350 O   0  0  0  0  0  0  0  0  0  0  0  0
   14.0947  -16.4959   19.2967 O   0  0  0  0  0  0  0  0  0  0  0  0
    4.9976  -11.9358   26.0219 N   0  0  0  0  0  0  0  0  0  0  0  0
    6.3634  -11.7147   25.7558 C   0  0  0  0  0  0  0  0  0  0  0  0
    6.8965  -10.5486   25.9400 N   0  0  0  0  0  0  0  0  0  0  0  0
    7.1949  -12.7579   25.2779 N   0  0  0  0  0  0  0  0  0  0  0  0
    7.4874  -13.9288   26.0620 C   0  0  0  0  0  0  0  0  0  0  0  0
    8.3061  -14.8647   25.2048 C   0  0  0  0  0  0  0  0  0  0  0  0
    8.6936  -16.1221   25.9472 C   0  0  0  0  0  0  0  0  0  0  0  0
   10.0784  -16.5617   25.5890 C   0  0  2  0  0  0  0  0  0  0  0  0
   10.2782  -16.8375   24.1798 N   0  0  0  0  0  0  0  0  0  0  0  0
   10.5037  -17.7389   26.4163 C   0  0  0  0  0  0  0  0  0  0  0  0
   10.5245  -18.8760   25.8476 O   0  0  0  0  0  0  0  0  0  0  0  0
   10.8689  -17.6881   27.7268 O   0  0  0  0  0  0  0  0  0  0  0  0
  2  1  1  1
  2  3  1  0
  4  2  1  0
  4  5  1  6
  6  4  1  0
  6  7  2  0
  8  6  1  0
  9  8  1  0
  9 10  1  6
 10 11  1  0
 11 12  2  0
 13  9  1  0
 14 13  2  0
 15 11  1  0
 17 18  2  0
 17 16  1  0
 19 17  1  0
 20 19  1  0
 21 20  1  0
 22 21  1  0
 23 22  1  6
 23 24  1  0
 24 13  1  0
 25 23  1  0
 26 25  2  0
 27 25  1  0
M  END
$$$$
