TDR.pdb
     RDKit          3D

 27 26  0  0  1  0  0  0  0  0999 V2000
    7.3191  -15.7351   17.9586 C   0  0  0  0  0  0  0  0  0  0  0  0
    8.0898  -14.4675   17.7231 C   0  0  1  0  0  0  0  0  0  0  0  0
    7.7448  -13.9626   16.4762 O   0  0  0  0  0  0  0  0  0  0  0  0
    7.8093  -13.4348   18.8227 C   0  0  2  0  0  0  0  0  0  0  0  0
    8.4180  -12.1751   18.4813 N   0  0  0  0  0  0  0  0  0  0  0  0
    8.3822  -14.0229   20.0647 C   0  0  0  0  0  0  0  0  0  0  0  0
    9.6118  -13.8871   20.2663 O   0  0  0  0  0  0  0  0  0  0  0  0
    7.6170  -14.7207   21.0207 N   0  0  0  0  0  0  0  0  0  0  0  0
    8.1224  -15.3076   22.2399 C   0  0  1  0  0  0  0  0  0  0  0  0
    6.9370  -15.7146   23.0768 C   0  0  0  0  0  0  0  0  0  0  0  0
    7.4214  -16.2066   24.3866 C   0  0  0  0  0  0  0  0  0  0  0  0
    8.6440  -16.1662   24.6654 O   0  0  0  0  0  0  0  0  0  0  0  0
    9.1092  -16.3716   22.0030 C   0  0  0  0  0  0  0  0  0  0  0  0
    8.9245  -17.2071   21.0784 O   0  0  0  0  0  0  0  0  0  0  0  0
    6.5671  -16.7329   25.3646 O   0  0  0  0  0  0  0  0  0  0  0  0
   13.8273  -14.2666   17.3756 N   0  0  0  0  0  0  0  0  0  0  0  0
   15.0110  -14.8149   17.9079 C   0  0  0  0  0  0  0  0  0  0  0  0
   16.0056  -15.1240   17.1378 N   0  0  0  0  0  0  0  0  0  0  0  0
   15.1502  -15.0463   19.2990 N   0  0  0  0  0  0  0  0  0  0  0  0
   14.1190  -14.7041   20.2427 C   0  0  0  0  0  0  0  0  0  0  0  0
   13.3520  -15.9648   20.5644 C   0  0  0  0  0  0  0  0  0  0  0  0
   12.0093  -15.6686   21.1905 C   0  0  0  0  0  0  0  0  0  0  0  0
   11.6204  -16.7279   22.1730 C   0  0  2  0  0  0  0  0  0  0  0  0
   10.3090  -16.5497   22.7649 N   0  0  0  0  0  0  0  0  0  0  0  0
   12.6598  -16.8807   23.2443 C   0  0  0  0  0  0  0  0  0  0  0  0
   12.7820  -15.9300   24.0798 O   0  0  0  0  0  0  0  0  0  0  0  0
   13.4829  -17.9546   23.3938 O   0  0  0  0  0  0  0  0  0  0  0  0
  2  1  1  1
  2  3  1  0
  4  2  1  0
  4  5  1  6
  6  4  1  0
  6  7  2  0
  8  6  1  0
  9  8  1  0
  9 10  1  6
 10 11  1  0
 11 12  2  0
 13  9  1  0
 14 13  2  0
 15 11  1  0
 17 18  2  0
 17 16  1  0
 19 17  1  0
 20 19  1  0
 21 20  1  0
 22 21  1  0
 23 22  1  1
 23 24  1  0
 24 13  1  0
 25 23  1  0
 26 25  2  0
 27 25  1  0
M  END
$$$$
