TDR.pdb
     RDKit          3D

 27 26  0  0  1  0  0  0  0  0999 V2000
    7.4874  -13.5763   22.9369 C   0  0  0  0  0  0  0  0  0  0  0  0
    6.9391  -14.4917   23.9941 C   0  0  1  0  0  0  0  0  0  0  0  0
    5.7893  -13.9207   24.5238 O   0  0  0  0  0  0  0  0  0  0  0  0
    6.6392  -15.8835   23.4222 C   0  0  2  0  0  0  0  0  0  0  0  0
    5.9078  -16.6643   24.3863 N   0  0  0  0  0  0  0  0  0  0  0  0
    7.9709  -16.4715   23.1099 C   0  0  0  0  0  0  0  0  0  0  0  0
    8.5474  -17.1306   24.0068 O   0  0  0  0  0  0  0  0  0  0  0  0
    8.6133  -16.3262   21.8639 N   0  0  0  0  0  0  0  0  0  0  0  0
    9.8654  -16.9384   21.4843 C   0  0  1  0  0  0  0  0  0  0  0  0
    9.9824  -16.8474   19.9846 C   0  0  0  0  0  0  0  0  0  0  0  0
    9.1405  -17.9011   19.3734 C   0  0  0  0  0  0  0  0  0  0  0  0
    8.4169  -17.6381   18.3829 O   0  0  0  0  0  0  0  0  0  0  0  0
   11.0168  -16.4087   22.2297 C   0  0  0  0  0  0  0  0  0  0  0  0
   11.5609  -15.3322   21.8661 O   0  0  0  0  0  0  0  0  0  0  0  0
    9.1023  -19.2172   19.8526 O   0  0  0  0  0  0  0  0  0  0  0  0
   12.1399  -16.0378   30.5098 N   0  0  0  0  0  0  0  0  0  0  0  0
   10.9668  -15.7220   29.7963 C   0  0  0  0  0  0  0  0  0  0  0  0
   10.0964  -14.8941   30.2808 N   0  0  0  0  0  0  0  0  0  0  0  0
   10.7016  -16.2998   28.5299 N   0  0  0  0  0  0  0  0  0  0  0  0
   11.7146  -16.9820   27.7683 C   0  0  0  0  0  0  0  0  0  0  0  0
   11.7779  -16.3371   26.4041 C   0  0  0  0  0  0  0  0  0  0  0  0
   12.8336  -16.9677   25.5263 C   0  0  0  0  0  0  0  0  0  0  0  0
   12.7229  -16.4907   24.1124 C   0  0  2  0  0  0  0  0  0  0  0  0
   11.5989  -17.0371   23.3777 N   0  0  0  0  0  0  0  0  0  0  0  0
   14.0004  -16.7239   23.3607 C   0  0  0  0  0  0  0  0  0  0  0  0
   14.8807  -15.8074   23.4060 O   0  0  0  0  0  0  0  0  0  0  0  0
   14.2931  -17.8370   22.6339 O   0  0  0  0  0  0  0  0  0  0  0  0
  2  1  1  6
  2  3  1  0
  4  2  1  0
  4  5  1  1
  6  4  1  0
  6  7  2  0
  8  6  1  0
  9  8  1  0
  9 10  1  6
 10 11  1  0
 11 12  2  0
 13  9  1  0
 14 13  2  0
 15 11  1  0
 17 18  2  0
 17 16  1  0
 19 17  1  0
 20 19  1  0
 21 20  1  0
 22 21  1  0
 23 22  1  1
 23 24  1  0
 24 13  1  0
 25 23  1  0
 26 25  2  0
 27 25  1  0
M  END
$$$$
