TDR.pdb
     RDKit          3D

 27 26  0  0  1  0  0  0  0  0999 V2000
    7.9291  -12.4615   19.1699 C   0  0  0  0  0  0  0  0  0  0  0  0
    7.7328  -13.5364   18.1391 C   0  0  1  0  0  0  0  0  0  0  0  0
    7.5047  -12.9354   16.9081 O   0  0  0  0  0  0  0  0  0  0  0  0
    8.9496  -14.4684   18.0704 C   0  0  2  0  0  0  0  0  0  0  0  0
    8.9700  -15.1582   16.8063 N   0  0  0  0  0  0  0  0  0  0  0  0
    8.7927  -15.3995   19.2215 C   0  0  0  0  0  0  0  0  0  0  0  0
    8.8139  -14.9144   20.3770 O   0  0  0  0  0  0  0  0  0  0  0  0
    8.6222  -16.7913   19.0795 N   0  0  0  0  0  0  0  0  0  0  0  0
    8.4770  -17.7377   20.1611 C   0  0  1  0  0  0  0  0  0  0  0  0
    7.8757  -18.9960   19.5897 C   0  0  0  0  0  0  0  0  0  0  0  0
    7.6796  -19.9734   20.6845 C   0  0  0  0  0  0  0  0  0  0  0  0
    7.8744  -19.6359   21.8770 O   0  0  0  0  0  0  0  0  0  0  0  0
    9.7168  -17.9348   20.9265 C   0  0  0  0  0  0  0  0  0  0  0  0
   10.6054  -18.7168   20.4953 O   0  0  0  0  0  0  0  0  0  0  0  0
    7.2772  -21.2966   20.4597 O   0  0  0  0  0  0  0  0  0  0  0  0
   16.3294  -14.3252   20.5866 N   0  0  0  0  0  0  0  0  0  0  0  0
   15.0767  -14.2403   19.9473 C   0  0  0  0  0  0  0  0  0  0  0  0
   14.8350  -13.3100   19.0790 N   0  0  0  0  0  0  0  0  0  0  0  0
   14.0435  -15.1667   20.2342 N   0  0  0  0  0  0  0  0  0  0  0  0
   14.0505  -15.9843   21.4186 C   0  0  0  0  0  0  0  0  0  0  0  0
   13.2166  -15.2854   22.4660 C   0  0  0  0  0  0  0  0  0  0  0  0
   11.7374  -15.5125   22.2588 C   0  0  0  0  0  0  0  0  0  0  0  0
   11.3505  -16.9198   22.5887 C   0  0  2  0  0  0  0  0  0  0  0  0
   10.0127  -17.2912   22.1715 N   0  0  0  0  0  0  0  0  0  0  0  0
   11.5394  -17.2049   24.0496 C   0  0  0  0  0  0  0  0  0  0  0  0
   10.5016  -17.2025   24.7845 O   0  0  0  0  0  0  0  0  0  0  0  0
   12.7319  -17.4655   24.6522 O   0  0  0  0  0  0  0  0  0  0  0  0
  2  1  1  1
  2  3  1  0
  4  2  1  0
  4  5  1  6
  6  4  1  0
  6  7  2  0
  8  6  1  0
  9  8  1  0
  9 10  1  6
 10 11  1  0
 11 12  2  0
 13  9  1  0
 14 13  2  0
 15 11  1  0
 17 18  2  0
 17 16  1  0
 19 17  1  0
 20 19  1  0
 21 20  1  0
 22 21  1  0
 23 22  1  1
 23 24  1  0
 24 13  1  0
 25 23  1  0
 26 25  2  0
 27 25  1  0
M  END
$$$$
