TDR.pdb
     RDKit          3D

 27 26  0  0  1  0  0  0  0  0999 V2000
    6.9791  -13.3727   19.6313 C   0  0  0  0  0  0  0  0  0  0  0  0
    7.9899  -13.6623   18.5585 C   0  0  1  0  0  0  0  0  0  0  0  0
    7.6850  -12.8951   17.4418 O   0  0  0  0  0  0  0  0  0  0  0  0
    9.4151  -13.3691   19.0450 C   0  0  2  0  0  0  0  0  0  0  0  0
   10.2741  -13.1036   17.9200 N   0  0  0  0  0  0  0  0  0  0  0  0
    9.8276  -14.5854   19.7982 C   0  0  0  0  0  0  0  0  0  0  0  0
    9.0925  -14.9731   20.7366 O   0  0  0  0  0  0  0  0  0  0  0  0
   10.9960  -15.3197   19.5118 N   0  0  0  0  0  0  0  0  0  0  0  0
   11.4727  -16.4670   20.2486 C   0  0  1  0  0  0  0  0  0  0  0  0
   12.7579  -16.9211   19.6059 C   0  0  0  0  0  0  0  0  0  0  0  0
   12.4603  -17.4327   18.2486 C   0  0  0  0  0  0  0  0  0  0  0  0
   11.4019  -18.0700   18.0302 O   0  0  0  0  0  0  0  0  0  0  0  0
   11.5535  -16.2302   21.6975 C   0  0  0  0  0  0  0  0  0  0  0  0
   12.3966  -15.4141   22.1560 O   0  0  0  0  0  0  0  0  0  0  0  0
   13.3197  -17.2419   17.1585 O   0  0  0  0  0  0  0  0  0  0  0  0
    5.1340  -13.2127   26.3154 N   0  0  0  0  0  0  0  0  0  0  0  0
    6.4430  -12.6965   26.3874 C   0  0  0  0  0  0  0  0  0  0  0  0
    6.7196  -11.6899   27.1542 N   0  0  0  0  0  0  0  0  0  0  0  0
    7.4956  -13.2599   25.6241 N   0  0  0  0  0  0  0  0  0  0  0  0
    7.8318  -14.6577   25.6911 C   0  0  0  0  0  0  0  0  0  0  0  0
    9.0064  -14.8938   24.7717 C   0  0  0  0  0  0  0  0  0  0  0  0
    9.3759  -16.3562   24.6863 C   0  0  0  0  0  0  0  0  0  0  0  0
   10.7328  -16.5413   24.0833 C   0  0  2  0  0  0  0  0  0  0  0  0
   10.7255  -16.8750   22.6725 N   0  0  0  0  0  0  0  0  0  0  0  0
   11.5347  -17.5487   24.8535 C   0  0  0  0  0  0  0  0  0  0  0  0
   11.6961  -17.3397   26.0974 O   0  0  0  0  0  0  0  0  0  0  0  0
   12.1039  -18.6683   24.3283 O   0  0  0  0  0  0  0  0  0  0  0  0
  2  1  1  1
  2  3  1  0
  4  2  1  0
  4  5  1  6
  6  4  1  0
  6  7  2  0
  8  6  1  0
  9  8  1  0
  9 10  1  6
 10 11  1  0
 11 12  2  0
 13  9  1  0
 14 13  2  0
 15 11  1  0
 17 18  2  0
 17 16  1  0
 19 17  1  0
 20 19  1  0
 21 20  1  0
 22 21  1  0
 23 22  1  1
 23 24  1  0
 24 13  1  0
 25 23  1  0
 26 25  2  0
 27 25  1  0
M  END
$$$$
