TDR.pdb
     RDKit          3D

 27 26  0  0  1  0  0  0  0  0999 V2000
   12.3157  -22.7808   23.2291 C   0  0  0  0  0  0  0  0  0  0  0  0
   11.1714  -22.6581   22.2638 C   0  0  1  0  0  0  0  0  0  0  0  0
   10.3819  -23.7962   22.3633 O   0  0  0  0  0  0  0  0  0  0  0  0
   10.3427  -21.3973   22.5425 C   0  0  2  0  0  0  0  0  0  0  0  0
    9.0705  -21.4871   21.8737 N   0  0  0  0  0  0  0  0  0  0  0  0
   11.1702  -20.2676   22.0369 C   0  0  0  0  0  0  0  0  0  0  0  0
   12.2370  -20.0044   22.6401 O   0  0  0  0  0  0  0  0  0  0  0  0
   10.8177  -19.4829   20.9205 N   0  0  0  0  0  0  0  0  0  0  0  0
   11.4880  -18.2774   20.4917 C   0  0  1  0  0  0  0  0  0  0  0  0
   11.1001  -18.0242   19.0576 C   0  0  0  0  0  0  0  0  0  0  0  0
   11.5044  -19.1899   18.2389 C   0  0  0  0  0  0  0  0  0  0  0  0
   10.6941  -19.7107   17.4351 O   0  0  0  0  0  0  0  0  0  0  0  0
   11.2741  -17.1425   21.4018 C   0  0  0  0  0  0  0  0  0  0  0  0
   11.8337  -16.0374   21.1725 O   0  0  0  0  0  0  0  0  0  0  0  0
   12.7800  -19.7652   18.3124 O   0  0  0  0  0  0  0  0  0  0  0  0
    9.3389  -13.9525   18.7336 N   0  0  0  0  0  0  0  0  0  0  0  0
    8.3848  -13.1382   19.3753 C   0  0  0  0  0  0  0  0  0  0  0  0
    8.2871  -11.8782   19.0911 N   0  0  0  0  0  0  0  0  0  0  0  0
    7.5050  -13.6699   20.3506 N   0  0  0  0  0  0  0  0  0  0  0  0
    7.7823  -13.5923   21.7607 C   0  0  0  0  0  0  0  0  0  0  0  0
    9.0628  -14.3497   22.0209 C   0  0  0  0  0  0  0  0  0  0  0  0
    8.9216  -15.3288   23.1628 C   0  0  0  0  0  0  0  0  0  0  0  0
   10.2090  -16.0427   23.4311 C   0  0  2  0  0  0  0  0  0  0  0  0
   10.4539  -17.1870   22.5753 N   0  0  0  0  0  0  0  0  0  0  0  0
   10.3184  -16.4378   24.8744 C   0  0  0  0  0  0  0  0  0  0  0  0
    9.4761  -17.2826   25.3145 O   0  0  0  0  0  0  0  0  0  0  0  0
   11.2462  -15.9646   25.7510 O   0  0  0  0  0  0  0  0  0  0  0  0
  2  1  1  1
  2  3  1  0
  4  2  1  0
  4  5  1  6
  6  4  1  0
  6  7  2  0
  8  6  1  0
  9  8  1  0
  9 10  1  6
 10 11  1  0
 11 12  2  0
 13  9  1  0
 14 13  2  0
 15 11  1  0
 17 18  2  0
 17 16  1  0
 19 17  1  0
 20 19  1  0
 21 20  1  0
 22 21  1  0
 23 22  1  1
 23 24  1  0
 24 13  1  0
 25 23  1  0
 26 25  2  0
 27 25  1  0
M  END
$$$$
