TDR.pdb
     RDKit          3D

 27 26  0  0  1  0  0  0  0  0999 V2000
   12.1746  -14.8615   18.2004 C   0  0  0  0  0  0  0  0  0  0  0  0
   10.9590  -15.5487   17.6467 C   0  0  1  0  0  0  0  0  0  0  0  0
   10.8282  -15.2091   16.3065 O   0  0  0  0  0  0  0  0  0  0  0  0
   11.0577  -17.0707   17.8132 C   0  0  2  0  0  0  0  0  0  0  0  0
    9.9797  -17.7137   17.1070 N   0  0  0  0  0  0  0  0  0  0  0  0
   10.9934  -17.3070   19.2818 C   0  0  0  0  0  0  0  0  0  0  0  0
    9.8687  -17.2723   19.8340 O   0  0  0  0  0  0  0  0  0  0  0  0
   12.1263  -17.5664   20.0790 N   0  0  0  0  0  0  0  0  0  0  0  0
   12.1090  -17.9168   21.4802 C   0  0  1  0  0  0  0  0  0  0  0  0
   13.4750  -18.4443   21.8363 C   0  0  0  0  0  0  0  0  0  0  0  0
   13.5828  -19.8467   21.3733 C   0  0  0  0  0  0  0  0  0  0  0  0
   12.5490  -20.5299   21.1773 O   0  0  0  0  0  0  0  0  0  0  0  0
   11.6198  -16.8301   22.3414 C   0  0  0  0  0  0  0  0  0  0  0  0
   12.2754  -15.7585   22.4365 O   0  0  0  0  0  0  0  0  0  0  0  0
   14.8115  -20.4765   21.1347 O   0  0  0  0  0  0  0  0  0  0  0  0
    8.2370  -12.7980   18.4250 N   0  0  0  0  0  0  0  0  0  0  0  0
    7.9716  -12.8633   19.8071 C   0  0  0  0  0  0  0  0  0  0  0  0
    8.3682  -11.9236   20.6056 N   0  0  0  0  0  0  0  0  0  0  0  0
    7.2653  -13.9570   20.3666 N   0  0  0  0  0  0  0  0  0  0  0  0
    7.2444  -14.2160   21.7822 C   0  0  0  0  0  0  0  0  0  0  0  0
    8.5835  -14.8011   22.1634 C   0  0  0  0  0  0  0  0  0  0  0  0
    8.6158  -15.2542   23.6043 C   0  0  0  0  0  0  0  0  0  0  0  0
    9.9554  -15.8113   23.9706 C   0  0  2  0  0  0  0  0  0  0  0  0
   10.4157  -16.8874   23.1151 N   0  0  0  0  0  0  0  0  0  0  0  0
    9.9899  -16.2371   25.4089 C   0  0  0  0  0  0  0  0  0  0  0  0
   10.1633  -17.4738   25.6482 O   0  0  0  0  0  0  0  0  0  0  0  0
    9.8501  -15.4065   26.4784 O   0  0  0  0  0  0  0  0  0  0  0  0
  2  1  1  6
  2  3  1  0
  4  2  1  0
  4  5  1  6
  6  4  1  0
  6  7  2  0
  8  6  1  0
  9  8  1  0
  9 10  1  1
 10 11  1  0
 11 12  2  0
 13  9  1  0
 14 13  2  0
 15 11  1  0
 17 18  2  0
 17 16  1  0
 19 17  1  0
 20 19  1  0
 21 20  1  0
 22 21  1  0
 23 22  1  6
 23 24  1  0
 24 13  1  0
 25 23  1  0
 26 25  2  0
 27 25  1  0
M  END
$$$$
