TDR.pdb
     RDKit          3D

 27 26  0  0  1  0  0  0  0  0999 V2000
    7.8600  -11.7359   18.9517 C   0  0  0  0  0  0  0  0  0  0  0  0
    8.8511  -12.8403   19.1847 C   0  0  1  0  0  0  0  0  0  0  0  0
    8.2709  -13.7906   20.0147 O   0  0  0  0  0  0  0  0  0  0  0  0
    9.2956  -13.4759   17.8608 C   0  0  2  0  0  0  0  0  0  0  0  0
    8.1799  -14.1356   17.2330 N   0  0  0  0  0  0  0  0  0  0  0  0
   10.3811  -14.4257   18.2296 C   0  0  0  0  0  0  0  0  0  0  0  0
   10.0978  -15.6449   18.2964 O   0  0  0  0  0  0  0  0  0  0  0  0
   11.7043  -14.0266   18.5060 N   0  0  0  0  0  0  0  0  0  0  0  0
   12.8003  -14.9090   18.8326 C   0  0  1  0  0  0  0  0  0  0  0  0
   14.0533  -14.3216   18.2357 C   0  0  0  0  0  0  0  0  0  0  0  0
   15.1703  -15.2731   18.4342 C   0  0  0  0  0  0  0  0  0  0  0  0
   14.9752  -16.3652   19.0202 O   0  0  0  0  0  0  0  0  0  0  0  0
   12.8835  -15.2203   20.2672 C   0  0  0  0  0  0  0  0  0  0  0  0
   13.2124  -14.3231   21.0881 O   0  0  0  0  0  0  0  0  0  0  0  0
   16.4752  -15.0168   17.9929 O   0  0  0  0  0  0  0  0  0  0  0  0
   13.8578  -20.0113   26.9611 N   0  0  0  0  0  0  0  0  0  0  0  0
   12.5105  -20.4026   26.8313 C   0  0  0  0  0  0  0  0  0  0  0  0
   12.0352  -21.3893   27.5229 N   0  0  0  0  0  0  0  0  0  0  0  0
   11.6353  -19.7318   25.9414 N   0  0  0  0  0  0  0  0  0  0  0  0
   11.8194  -19.7600   24.5143 C   0  0  0  0  0  0  0  0  0  0  0  0
   12.4051  -18.4313   24.0989 C   0  0  0  0  0  0  0  0  0  0  0  0
   12.0658  -18.0834   22.6684 C   0  0  0  0  0  0  0  0  0  0  0  0
   12.7119  -16.7996   22.2517 C   0  0  2  0  0  0  0  0  0  0  0  0
   12.6151  -16.5077   20.8350 N   0  0  0  0  0  0  0  0  0  0  0  0
   14.1428  -16.7434   22.6995 C   0  0  0  0  0  0  0  0  0  0  0  0
   15.0191  -17.2330   21.9189 O   0  0  0  0  0  0  0  0  0  0  0  0
   14.5788  -16.2109   23.8740 O   0  0  0  0  0  0  0  0  0  0  0  0
  2  1  1  6
  2  3  1  0
  4  2  1  0
  4  5  1  1
  6  4  1  0
  6  7  2  0
  8  6  1  0
  9  8  1  0
  9 10  1  1
 10 11  1  0
 11 12  2  0
 13  9  1  0
 14 13  2  0
 15 11  1  0
 17 18  2  0
 17 16  1  0
 19 17  1  0
 20 19  1  0
 21 20  1  0
 22 21  1  0
 23 22  1  6
 23 24  1  0
 24 13  1  0
 25 23  1  0
 26 25  2  0
 27 25  1  0
M  END
$$$$
