QKV.pdb
     RDKit          3D

 26 25  0  0  1  0  0  0  0  0999 V2000
   12.4014  -15.3460   18.8863 N   0  0  0  0  0  0  0  0  0  0  0  0
   12.0955  -14.1577   19.6474 C   0  0  0  0  0  0  0  0  0  0  0  0
   13.0510  -13.5275   20.1620 O   0  0  0  0  0  0  0  0  0  0  0  0
   10.7078  -13.6974   19.8226 C   0  0  0  0  0  0  0  0  0  0  0  0
    9.6952  -14.5377   19.1543 C   0  0  0  0  0  0  0  0  0  0  0  0
    8.2656  -14.1186   19.3351 C   0  0  2  0  0  0  0  0  0  0  0  0
    8.0833  -12.7556   19.0261 N   0  0  0  0  0  0  0  0  0  0  0  0
    7.8271  -14.5081   20.7204 C   0  0  0  0  0  0  0  0  0  0  0  0
    7.5208  -13.5873   21.5533 O   0  0  0  0  0  0  0  0  0  0  0  0
    7.7237  -15.8155   21.1856 N   0  0  0  0  0  0  0  0  0  0  0  0
    7.2632  -16.2029   22.4957 C   0  0  1  0  0  0  0  0  0  0  0  0
    7.2998  -17.7226   22.6669 C   0  0  0  0  0  0  0  0  0  0  0  0
    6.8777  -18.1272   24.0471 C   0  0  0  0  0  0  0  0  0  0  0  0
    7.0458  -19.6248   24.1731 C   0  0  0  0  0  0  0  0  0  0  0  0
    6.5300  -20.1721   25.4655 C   0  0  0  0  0  0  0  0  0  0  0  0
    6.7229  -21.6113   25.4393 N   0  0  0  0  0  0  0  0  0  0  0  0
    7.9978  -15.6134   23.6020 C   0  0  0  0  0  0  0  0  0  0  0  0
    9.2385  -15.4931   23.5507 O   0  0  0  0  0  0  0  0  0  0  0  0
    6.2868  -12.7492   25.6154 C   0  0  0  0  0  0  0  0  0  0  0  0
    6.9176  -13.7190   26.6103 C   0  0  2  0  0  0  0  0  0  0  0  0
    7.4834  -12.9204   27.7526 C   0  0  0  0  0  0  0  0  0  0  0  0
    7.9917  -14.4806   25.8549 C   0  0  2  0  0  0  0  0  0  0  0  0
    7.3271  -15.1628   24.7602 N   0  0  0  0  0  0  0  0  0  0  0  0
    8.6867  -15.4420   26.7467 C   0  0  0  0  0  0  0  0  0  0  0  0
    8.2221  -16.5997   26.8819 O   0  0  0  0  0  0  0  0  0  0  0  0
    9.8305  -15.1036   27.4342 O   0  0  0  0  0  0  0  0  0  0  0  0
  2  1  1  0
  3  2  2  0
  4  2  1  0
  5  4  1  0
  6  5  1  0
  6  8  1  0
  6  7  1  1
  8  9  2  0
 10  8  1  0
 10 11  1  0
 11 12  1  6
 12 13  1  0
 13 14  1  0
 15 14  1  0
 16 15  1  0
 17 11  1  0
 17 18  2  0
 20 19  1  6
 20 22  1  0
 21 20  1  0
 22 24  1  0
 22 23  1  6
 23 17  1  0
 24 26  1  0
 25 24  2  0
M  END
$$$$
