QKV.pdb
     RDKit          3D

 26 25  0  0  1  0  0  0  0  0999 V2000
    9.4977  -12.3272   18.3543 N   0  0  0  0  0  0  0  0  0  0  0  0
    8.8820  -13.4172   17.6347 C   0  0  0  0  0  0  0  0  0  0  0  0
    9.5914  -14.0611   16.8242 O   0  0  0  0  0  0  0  0  0  0  0  0
    7.4654  -13.7641   17.8371 C   0  0  0  0  0  0  0  0  0  0  0  0
    7.1166  -14.1293   19.2240 C   0  0  0  0  0  0  0  0  0  0  0  0
    8.0804  -15.0374   19.9299 C   0  0  2  0  0  0  0  0  0  0  0  0
    8.2863  -16.2322   19.2112 N   0  0  0  0  0  0  0  0  0  0  0  0
    7.6016  -15.2340   21.3424 C   0  0  0  0  0  0  0  0  0  0  0  0
    7.0027  -14.2698   21.9316 O   0  0  0  0  0  0  0  0  0  0  0  0
    7.7580  -16.4024   22.0818 N   0  0  0  0  0  0  0  0  0  0  0  0
    7.3733  -16.5776   23.4600 C   0  0  1  0  0  0  0  0  0  0  0  0
    7.5542  -18.0305   23.9035 C   0  0  0  0  0  0  0  0  0  0  0  0
    7.1934  -18.2099   25.3473 C   0  0  0  0  0  0  0  0  0  0  0  0
    7.4274  -19.6575   25.7168 C   0  0  0  0  0  0  0  0  0  0  0  0
    7.1274  -19.9589   27.1504 C   0  0  0  0  0  0  0  0  0  0  0  0
    7.3483  -21.3797   27.3544 N   0  0  0  0  0  0  0  0  0  0  0  0
    8.0826  -15.7328   24.4058 C   0  0  0  0  0  0  0  0  0  0  0  0
    9.3111  -15.8628   24.5792 O   0  0  0  0  0  0  0  0  0  0  0  0
    8.0131  -11.4546   26.7425 C   0  0  0  0  0  0  0  0  0  0  0  0
    7.2379  -12.5116   25.9615 C   0  0  2  0  0  0  0  0  0  0  0  0
    5.8956  -12.6912   26.6161 C   0  0  0  0  0  0  0  0  0  0  0  0
    8.0704  -13.7805   26.0016 C   0  0  2  0  0  0  0  0  0  0  0  0
    7.4003  -14.7458   25.1504 N   0  0  0  0  0  0  0  0  0  0  0  0
    8.2006  -14.2855   27.3911 C   0  0  0  0  0  0  0  0  0  0  0  0
    7.4066  -15.1665   27.8007 O   0  0  0  0  0  0  0  0  0  0  0  0
    9.1691  -13.8168   28.2500 O   0  0  0  0  0  0  0  0  0  0  0  0
  2  1  1  0
  3  2  2  0
  4  2  1  0
  5  4  1  0
  6  5  1  0
  6  8  1  0
  6  7  1  6
  8  9  2  0
 10  8  1  0
 10 11  1  0
 11 12  1  1
 12 13  1  0
 13 14  1  0
 15 14  1  0
 16 15  1  0
 17 11  1  0
 17 18  2  0
 20 19  1  1
 20 22  1  0
 21 20  1  0
 22 24  1  0
 22 23  1  6
 23 17  1  0
 24 26  1  0
 25 24  2  0
M  END
$$$$
