QKV.pdb
     RDKit          3D

 26 25  0  0  1  0  0  0  0  0999 V2000
    8.0384  -16.2831   16.4051 N   0  0  0  0  0  0  0  0  0  0  0  0
    7.7833  -17.5363   17.0755 C   0  0  0  0  0  0  0  0  0  0  0  0
    8.5903  -18.4787   16.8864 O   0  0  0  0  0  0  0  0  0  0  0  0
    6.6121  -17.7114   17.9506 C   0  0  0  0  0  0  0  0  0  0  0  0
    6.6635  -16.9347   19.2046 C   0  0  0  0  0  0  0  0  0  0  0  0
    7.7689  -17.2888   20.1558 C   0  0  2  0  0  0  0  0  0  0  0  0
    8.1245  -18.6487   20.0523 N   0  0  0  0  0  0  0  0  0  0  0  0
    7.3652  -16.8531   21.5379 C   0  0  0  0  0  0  0  0  0  0  0  0
    6.5432  -15.8816   21.6641 O   0  0  0  0  0  0  0  0  0  0  0  0
    7.8202  -17.4293   22.7200 N   0  0  0  0  0  0  0  0  0  0  0  0
    7.4107  -17.0471   24.0483 C   0  0  1  0  0  0  0  0  0  0  0  0
    7.6713  -18.1720   25.0518 C   0  0  0  0  0  0  0  0  0  0  0  0
    6.7063  -19.3040   24.8663 C   0  0  0  0  0  0  0  0  0  0  0  0
    7.0272  -20.3713   25.8885 C   0  0  0  0  0  0  0  0  0  0  0  0
    6.1317  -21.5654   25.7992 C   0  0  0  0  0  0  0  0  0  0  0  0
    6.4956  -22.4669   26.8780 N   0  0  0  0  0  0  0  0  0  0  0  0
    8.0395  -15.8411   24.5597 C   0  0  0  0  0  0  0  0  0  0  0  0
    9.2631  -15.6486   24.4111 O   0  0  0  0  0  0  0  0  0  0  0  0
    7.3725  -11.2834   26.2065 C   0  0  0  0  0  0  0  0  0  0  0  0
    6.7376  -12.6085   25.7952 C   0  0  2  0  0  0  0  0  0  0  0  0
    5.6705  -12.9512   26.7984 C   0  0  0  0  0  0  0  0  0  0  0  0
    7.8539  -13.6371   25.7705 C   0  0  2  0  0  0  0  0  0  0  0  0
    7.2828  -14.8592   25.2360 N   0  0  0  0  0  0  0  0  0  0  0  0
    8.4082  -13.8508   27.1306 C   0  0  0  0  0  0  0  0  0  0  0  0
    9.0675  -12.9328   27.6756 O   0  0  0  0  0  0  0  0  0  0  0  0
    8.2219  -15.0293   27.8175 O   0  0  0  0  0  0  0  0  0  0  0  0
  2  1  1  0
  3  2  2  0
  4  2  1  0
  5  4  1  0
  6  5  1  0
  6  8  1  0
  6  7  1  1
  8  9  2  0
 10  8  1  0
 10 11  1  0
 11 12  1  1
 12 13  1  0
 13 14  1  0
 15 14  1  0
 16 15  1  0
 17 11  1  0
 17 18  2  0
 20 19  1  1
 20 22  1  0
 21 20  1  0
 22 24  1  0
 22 23  1  1
 23 17  1  0
 24 26  1  0
 25 24  2  0
M  END
$$$$
