QKV.pdb
     RDKit          3D

 26 25  0  0  1  0  0  0  0  0999 V2000
    8.2442  -12.0010   18.1581 N   0  0  0  0  0  0  0  0  0  0  0  0
    7.8565  -13.3831   18.0008 C   0  0  0  0  0  0  0  0  0  0  0  0
    8.2009  -13.9737   16.9485 O   0  0  0  0  0  0  0  0  0  0  0  0
    7.0770  -14.0817   19.0364 C   0  0  0  0  0  0  0  0  0  0  0  0
    7.6308  -13.9687   20.3998 C   0  0  0  0  0  0  0  0  0  0  0  0
    8.4035  -15.1543   20.8991 C   0  0  2  0  0  0  0  0  0  0  0  0
    8.1930  -16.2876   20.0879 N   0  0  0  0  0  0  0  0  0  0  0  0
    8.0753  -15.3584   22.3529 C   0  0  0  0  0  0  0  0  0  0  0  0
    7.8452  -14.3346   23.0840 O   0  0  0  0  0  0  0  0  0  0  0  0
    7.9989  -16.5947   22.9869 N   0  0  0  0  0  0  0  0  0  0  0  0
    7.7455  -16.8001   24.3912 C   0  0  1  0  0  0  0  0  0  0  0  0
    7.3888  -18.2594   24.6804 C   0  0  0  0  0  0  0  0  0  0  0  0
    6.3008  -18.7462   23.7714 C   0  0  0  0  0  0  0  0  0  0  0  0
    6.0460  -20.2050   24.0780 C   0  0  0  0  0  0  0  0  0  0  0  0
    4.9190  -20.7884   23.2871 C   0  0  0  0  0  0  0  0  0  0  0  0
    4.8599  -22.2073   23.5907 N   0  0  0  0  0  0  0  0  0  0  0  0
    8.8396  -16.4274   25.2716 C   0  0  0  0  0  0  0  0  0  0  0  0
   10.0228  -16.6572   24.9499 O   0  0  0  0  0  0  0  0  0  0  0  0
    8.8570  -13.0919   26.9969 C   0  0  0  0  0  0  0  0  0  0  0  0
    9.1395  -14.1084   28.0992 C   0  0  2  0  0  0  0  0  0  0  0  0
   10.1635  -13.5206   29.0311 C   0  0  0  0  0  0  0  0  0  0  0  0
    9.6422  -15.3660   27.4136 C   0  0  2  0  0  0  0  0  0  0  0  0
    8.5913  -15.7970   26.5107 N   0  0  0  0  0  0  0  0  0  0  0  0
    9.9644  -16.4196   28.4080 C   0  0  0  0  0  0  0  0  0  0  0  0
    9.0864  -17.2611   28.7167 O   0  0  0  0  0  0  0  0  0  0  0  0
   11.2016  -16.5044   29.0062 O   0  0  0  0  0  0  0  0  0  0  0  0
  2  1  1  0
  3  2  2  0
  4  2  1  0
  5  4  1  0
  6  5  1  0
  6  8  1  0
  6  7  1  6
  8  9  2  0
 10  8  1  0
 10 11  1  0
 11 12  1  6
 12 13  1  0
 13 14  1  0
 15 14  1  0
 16 15  1  0
 17 11  1  0
 17 18  2  0
 20 19  1  6
 20 22  1  0
 21 20  1  0
 22 24  1  0
 22 23  1  6
 23 17  1  0
 24 26  1  0
 25 24  2  0
M  END
$$$$
