QKV.pdb
     RDKit          3D

 26 25  0  0  1  0  0  0  0  0999 V2000
   12.8194  -21.9000   20.5069 N   0  0  0  0  0  0  0  0  0  0  0  0
   13.5009  -20.9215   21.3213 C   0  0  0  0  0  0  0  0  0  0  0  0
   14.7451  -21.0258   21.4472 O   0  0  0  0  0  0  0  0  0  0  0  0
   12.7642  -19.8361   21.9902 C   0  0  0  0  0  0  0  0  0  0  0  0
   11.3138  -19.8218   21.7171 C   0  0  0  0  0  0  0  0  0  0  0  0
   10.4210  -19.5964   22.9021 C   0  0  2  0  0  0  0  0  0  0  0  0
    9.2761  -20.4168   22.8504 N   0  0  0  0  0  0  0  0  0  0  0  0
   10.1292  -18.1243   23.0049 C   0  0  0  0  0  0  0  0  0  0  0  0
   11.0491  -17.3397   23.4218 O   0  0  0  0  0  0  0  0  0  0  0  0
    8.9153  -17.5275   22.6783 N   0  0  0  0  0  0  0  0  0  0  0  0
    8.5913  -16.1351   22.8640 C   0  0  1  0  0  0  0  0  0  0  0  0
    7.6251  -15.6441   21.7843 C   0  0  0  0  0  0  0  0  0  0  0  0
    7.4623  -14.1549   21.8332 C   0  0  0  0  0  0  0  0  0  0  0  0
    7.9979  -13.5779   20.5420 C   0  0  0  0  0  0  0  0  0  0  0  0
    7.8867  -12.0886   20.4675 C   0  0  0  0  0  0  0  0  0  0  0  0
    8.4271  -11.6731   19.1852 N   0  0  0  0  0  0  0  0  0  0  0  0
    8.0157  -15.8077   24.1573 C   0  0  0  0  0  0  0  0  0  0  0  0
    7.0435  -16.4500   24.6030 O   0  0  0  0  0  0  0  0  0  0  0  0
   10.3267  -14.3461   27.0648 C   0  0  0  0  0  0  0  0  0  0  0  0
    9.0661  -13.5030   26.8970 C   0  0  2  0  0  0  0  0  0  0  0  0
    8.6357  -13.0233   28.2562 C   0  0  0  0  0  0  0  0  0  0  0  0
    8.0261  -14.3989   26.2487 C   0  0  2  0  0  0  0  0  0  0  0  0
    8.5415  -14.7566   24.9403 N   0  0  0  0  0  0  0  0  0  0  0  0
    6.7194  -13.7033   26.1418 C   0  0  0  0  0  0  0  0  0  0  0  0
    6.4218  -13.1175   25.0729 O   0  0  0  0  0  0  0  0  0  0  0  0
    5.8183  -13.6796   27.1825 O   0  0  0  0  0  0  0  0  0  0  0  0
  2  1  1  0
  3  2  2  0
  4  2  1  0
  5  4  1  0
  6  5  1  0
  6  8  1  0
  6  7  1  6
  8  9  2  0
 10  8  1  0
 10 11  1  0
 11 12  1  6
 12 13  1  0
 13 14  1  0
 15 14  1  0
 16 15  1  0
 17 11  1  0
 17 18  2  0
 20 19  1  1
 20 22  1  0
 21 20  1  0
 22 24  1  0
 22 23  1  6
 23 17  1  0
 24 26  1  0
 25 24  2  0
M  END
$$$$
