QKV.pdb
     RDKit          3D

 26 25  0  0  1  0  0  0  0  0999 V2000
    9.5038  -14.2680   16.6656 N   0  0  0  0  0  0  0  0  0  0  0  0
    9.4046  -13.6448   17.9643 C   0  0  0  0  0  0  0  0  0  0  0  0
   10.4363  -13.6065   18.6779 O   0  0  0  0  0  0  0  0  0  0  0  0
    8.1347  -13.0749   18.4445 C   0  0  0  0  0  0  0  0  0  0  0  0
    7.7269  -13.5332   19.7869 C   0  0  0  0  0  0  0  0  0  0  0  0
    7.5030  -15.0091   19.9410 C   0  0  2  0  0  0  0  0  0  0  0  0
    6.5722  -15.4920   18.9993 N   0  0  0  0  0  0  0  0  0  0  0  0
    7.1421  -15.2885   21.3744 C   0  0  0  0  0  0  0  0  0  0  0  0
    6.2455  -14.5708   21.9370 O   0  0  0  0  0  0  0  0  0  0  0  0
    7.7135  -16.2843   22.1607 N   0  0  0  0  0  0  0  0  0  0  0  0
    7.4173  -16.5252   23.5509 C   0  0  1  0  0  0  0  0  0  0  0  0
    7.7442  -17.9671   23.9435 C   0  0  0  0  0  0  0  0  0  0  0  0
    7.4320  -18.2245   25.3868 C   0  0  0  0  0  0  0  0  0  0  0  0
    7.6996  -19.6847   25.6754 C   0  0  0  0  0  0  0  0  0  0  0  0
    7.4432  -20.0638   27.0989 C   0  0  0  0  0  0  0  0  0  0  0  0
    7.8881  -21.4351   27.2735 N   0  0  0  0  0  0  0  0  0  0  0  0
    8.1002  -15.6450   24.4837 C   0  0  0  0  0  0  0  0  0  0  0  0
    9.3338  -15.4737   24.4113 O   0  0  0  0  0  0  0  0  0  0  0  0
    6.3824  -12.3653   25.5847 C   0  0  0  0  0  0  0  0  0  0  0  0
    6.8945  -13.0619   26.8420 C   0  0  2  0  0  0  0  0  0  0  0  0
    7.3965  -12.0096   27.7924 C   0  0  0  0  0  0  0  0  0  0  0  0
    7.9964  -14.0071   26.3981 C   0  0  2  0  0  0  0  0  0  0  0  0
    7.3860  -14.9632   25.4933 N   0  0  0  0  0  0  0  0  0  0  0  0
    8.6139  -14.6865   27.5642 C   0  0  0  0  0  0  0  0  0  0  0  0
    8.2058  -15.8252   27.8978 O   0  0  0  0  0  0  0  0  0  0  0  0
    9.6251  -14.1055   28.2959 O   0  0  0  0  0  0  0  0  0  0  0  0
  2  1  1  0
  3  2  2  0
  4  2  1  0
  5  4  1  0
  6  5  1  0
  6  8  1  0
  6  7  1  6
  8  9  2  0
 10  8  1  0
 10 11  1  0
 11 12  1  1
 12 13  1  0
 13 14  1  0
 15 14  1  0
 16 15  1  0
 17 11  1  0
 17 18  2  0
 20 19  1  6
 20 22  1  0
 21 20  1  0
 22 24  1  0
 22 23  1  6
 23 17  1  0
 24 26  1  0
 25 24  2  0
M  END
$$$$
