DYA.pdb
     RDKit          3D

 26 26  0  0  1  0  0  0  0  0999 V2000
    9.4747  -18.4502   20.4283 N   0  0  0  0  0  0  0  0  0  0  0  0
   10.7210  -17.7941   20.7167 C   0  0  1  0  0  0  0  0  0  0  0  0
   11.2492  -17.1129   19.4822 C   0  0  0  0  0  0  0  0  0  0  0  0
   11.4906  -18.1326   18.4476 C   0  0  0  0  0  0  0  0  0  0  0  0
   11.8686  -19.2732   18.7665 O   0  0  0  0  0  0  0  0  0  0  0  0
   10.6124  -16.8807   21.8853 C   0  0  0  0  0  0  0  0  0  0  0  0
   11.6328  -16.2349   22.2086 O   0  0  0  0  0  0  0  0  0  0  0  0
   11.2996  -17.8315   17.1153 O   0  0  0  0  0  0  0  0  0  0  0  0
    7.3914  -12.7490   18.4205 O   0  0  0  0  0  0  0  0  0  0  0  0
    7.5287  -13.3096   19.6776 C   0  0  0  0  0  0  0  0  0  0  0  0
    8.3719  -12.7070   20.5860 C   0  0  0  0  0  0  0  0  0  0  0  0
    8.5113  -13.2596   21.8332 C   0  0  0  0  0  0  0  0  0  0  0  0
    7.8113  -14.4162   22.1836 C   0  0  0  0  0  0  0  0  0  0  0  0
    7.9916  -14.9943   23.5307 C   0  0  0  0  0  0  0  0  0  0  0  0
    9.2950  -15.7450   23.7001 C   0  0  2  0  0  0  0  0  0  0  0  0
    9.4159  -16.7267   22.6232 N   0  0  0  0  0  0  0  0  0  0  0  0
    9.4131  -16.4104   25.0237 C   0  0  0  0  0  0  0  0  0  0  0  0
    9.1267  -15.7475   26.0549 O   0  0  0  0  0  0  0  0  0  0  0  0
    6.9717  -15.0005   21.2528 C   0  0  0  0  0  0  0  0  0  0  0  0
    6.8224  -14.4549   19.9949 C   0  0  0  0  0  0  0  0  0  0  0  0
    9.9135  -19.8937   26.3146 C   0  0  0  0  0  0  0  0  0  0  0  0
   10.0380  -18.3961   26.4380 C   0  0  2  0  0  0  0  0  0  0  0  0
    9.8359  -17.7610   25.1683 N   0  0  0  0  0  0  0  0  0  0  0  0
   11.3488  -18.0629   27.0410 C   0  0  0  0  0  0  0  0  0  0  0  0
   12.2404  -17.6152   26.2765 O   0  0  0  0  0  0  0  0  0  0  0  0
   11.6633  -18.2065   28.3758 O   0  0  0  0  0  0  0  0  0  0  0  0
  2  1  1  6
  3  2  1  0
  3  4  1  0
  4  5  2  0
  6  2  1  0
  7  6  2  0
  8  4  1  0
  9 10  1  0
 10 11  2  0
 10 20  1  0
 11 12  1  0
 12 13  2  0
 13 14  1  0
 15 14  1  1
 15 17  1  0
 15 16  1  0
 16  6  1  0
 17 23  1  0
 18 17  2  0
 19 13  1  0
 20 19  2  0
 22 21  1  6
 22 24  1  0
 23 22  1  0
 24 25  2  0
 24 26  1  0
M  END
$$$$
