DYA.pdb
     RDKit          3D

 26 26  0  0  1  0  0  0  0  0999 V2000
   10.3041  -16.6046   18.4990 N   0  0  0  0  0  0  0  0  0  0  0  0
    9.7030  -17.3031   19.6024 C   0  0  1  0  0  0  0  0  0  0  0  0
   10.3271  -18.6643   19.7596 C   0  0  0  0  0  0  0  0  0  0  0  0
   10.1126  -19.4276   18.5187 C   0  0  0  0  0  0  0  0  0  0  0  0
    8.9710  -19.8062   18.2039 O   0  0  0  0  0  0  0  0  0  0  0  0
    9.7337  -16.4998   20.8536 C   0  0  0  0  0  0  0  0  0  0  0  0
   10.8397  -16.0475   21.2209 O   0  0  0  0  0  0  0  0  0  0  0  0
   11.1763  -19.7295   17.6943 O   0  0  0  0  0  0  0  0  0  0  0  0
    6.8977  -11.8682   27.8285 O   0  0  0  0  0  0  0  0  0  0  0  0
    7.0019  -12.5609   26.6357 C   0  0  0  0  0  0  0  0  0  0  0  0
    6.3725  -13.7814   26.5183 C   0  0  0  0  0  0  0  0  0  0  0  0
    6.4736  -14.4716   25.3377 C   0  0  0  0  0  0  0  0  0  0  0  0
    7.2023  -13.9503   24.2664 C   0  0  0  0  0  0  0  0  0  0  0  0
    7.3026  -14.7232   23.0117 C   0  0  0  0  0  0  0  0  0  0  0  0
    8.6231  -15.4443   22.8464 C   0  0  2  0  0  0  0  0  0  0  0  0
    8.5744  -16.2403   21.6209 N   0  0  0  0  0  0  0  0  0  0  0  0
    8.9638  -16.3042   24.0097 C   0  0  0  0  0  0  0  0  0  0  0  0
    8.1599  -17.2165   24.3358 O   0  0  0  0  0  0  0  0  0  0  0  0
    7.8240  -12.7235   24.4112 C   0  0  0  0  0  0  0  0  0  0  0  0
    7.7303  -12.0188   25.5931 C   0  0  0  0  0  0  0  0  0  0  0  0
   12.0427  -16.9294   26.0627 C   0  0  0  0  0  0  0  0  0  0  0  0
   10.5567  -17.0171   25.8230 C   0  0  2  0  0  0  0  0  0  0  0  0
   10.1577  -16.1356   24.7647 N   0  0  0  0  0  0  0  0  0  0  0  0
    9.8405  -16.7481   27.0909 C   0  0  0  0  0  0  0  0  0  0  0  0
    9.8540  -17.6506   27.9657 O   0  0  0  0  0  0  0  0  0  0  0  0
    9.1617  -15.5840   27.3828 O   0  0  0  0  0  0  0  0  0  0  0  0
  2  1  1  6
  3  2  1  0
  3  4  1  0
  4  5  2  0
  6  2  1  0
  7  6  2  0
  8  4  1  0
  9 10  1  0
 10 11  2  0
 10 20  1  0
 11 12  1  0
 12 13  2  0
 13 14  1  0
 15 14  1  1
 15 17  1  0
 15 16  1  0
 16  6  1  0
 17 23  1  0
 18 17  2  0
 19 13  1  0
 20 19  2  0
 22 21  1  1
 22 24  1  0
 23 22  1  0
 24 25  2  0
 24 26  1  0
M  END
$$$$
