DYA.pdb
     RDKit          3D

 26 26  0  0  1  0  0  0  0  0999 V2000
    8.8550  -17.1809   19.1204 N   0  0  0  0  0  0  0  0  0  0  0  0
    9.9331  -17.5109   20.0123 C   0  0  1  0  0  0  0  0  0  0  0  0
   11.2483  -17.4607   19.2809 C   0  0  0  0  0  0  0  0  0  0  0  0
   11.1388  -18.2727   18.0574 C   0  0  0  0  0  0  0  0  0  0  0  0
   12.0079  -18.1939   17.1718 O   0  0  0  0  0  0  0  0  0  0  0  0
    9.9167  -16.6725   21.2405 C   0  0  0  0  0  0  0  0  0  0  0  0
   11.0197  -16.3466   21.7305 O   0  0  0  0  0  0  0  0  0  0  0  0
   10.0711  -19.1280   17.8826 O   0  0  0  0  0  0  0  0  0  0  0  0
    6.9406  -11.5834   27.8302 O   0  0  0  0  0  0  0  0  0  0  0  0
    7.0559  -12.3554   26.6882 C   0  0  0  0  0  0  0  0  0  0  0  0
    7.8267  -11.8891   25.6453 C   0  0  0  0  0  0  0  0  0  0  0  0
    7.9434  -12.6511   24.5112 C   0  0  0  0  0  0  0  0  0  0  0  0
    7.2930  -13.8827   24.4089 C   0  0  0  0  0  0  0  0  0  0  0  0
    7.4283  -14.6748   23.1696 C   0  0  0  0  0  0  0  0  0  0  0  0
    8.7196  -15.4605   23.0889 C   0  0  2  0  0  0  0  0  0  0  0  0
    8.7170  -16.2446   21.8548 N   0  0  0  0  0  0  0  0  0  0  0  0
    8.9349  -16.3444   24.2641 C   0  0  0  0  0  0  0  0  0  0  0  0
    8.1080  -17.2695   24.4771 O   0  0  0  0  0  0  0  0  0  0  0  0
    6.5257  -14.3268   25.4703 C   0  0  0  0  0  0  0  0  0  0  0  0
    6.4000  -13.5703   26.6168 C   0  0  0  0  0  0  0  0  0  0  0  0
   11.8053  -17.4708   26.1909 C   0  0  0  0  0  0  0  0  0  0  0  0
   10.3419  -17.1083   26.2059 C   0  0  2  0  0  0  0  0  0  0  0  0
   10.0342  -16.1848   25.1528 N   0  0  0  0  0  0  0  0  0  0  0  0
    9.9809  -16.5887   27.5448 C   0  0  0  0  0  0  0  0  0  0  0  0
   10.1616  -17.3496   28.5287 O   0  0  0  0  0  0  0  0  0  0  0  0
    9.4627  -15.3350   27.7919 O   0  0  0  0  0  0  0  0  0  0  0  0
  2  1  1  6
  3  2  1  0
  3  4  1  0
  4  5  2  0
  6  2  1  0
  7  6  2  0
  8  4  1  0
  9 10  1  0
 10 11  2  0
 10 20  1  0
 11 12  1  0
 12 13  2  0
 13 14  1  0
 15 14  1  1
 15 17  1  0
 15 16  1  0
 16  6  1  0
 17 23  1  0
 18 17  2  0
 19 13  1  0
 20 19  2  0
 22 21  1  1
 22 24  1  0
 23 22  1  0
 24 25  2  0
 24 26  1  0
M  END
$$$$
