DYA.pdb
     RDKit          3D

 26 26  0  0  1  0  0  0  0  0999 V2000
   11.2345  -16.7315   19.7898 N   0  0  0  0  0  0  0  0  0  0  0  0
   10.9268  -17.3435   21.0538 C   0  0  1  0  0  0  0  0  0  0  0  0
   12.0358  -18.2751   21.4654 C   0  0  0  0  0  0  0  0  0  0  0  0
   12.1401  -19.3537   20.4684 C   0  0  0  0  0  0  0  0  0  0  0  0
   13.2203  -19.5755   19.8942 O   0  0  0  0  0  0  0  0  0  0  0  0
   10.5962  -16.3348   22.0954 C   0  0  0  0  0  0  0  0  0  0  0  0
   11.4697  -15.4843   22.3718 O   0  0  0  0  0  0  0  0  0  0  0  0
   11.0403  -20.1276   20.1624 O   0  0  0  0  0  0  0  0  0  0  0  0
    5.8613  -11.5136   27.7909 O   0  0  0  0  0  0  0  0  0  0  0  0
    6.2865  -12.3540   26.7777 C   0  0  0  0  0  0  0  0  0  0  0  0
    5.9781  -13.6951   26.8530 C   0  0  0  0  0  0  0  0  0  0  0  0
    6.3979  -14.5319   25.8510 C   0  0  0  0  0  0  0  0  0  0  0  0
    7.1276  -14.0379   24.7675 C   0  0  0  0  0  0  0  0  0  0  0  0
    7.5760  -14.9664   23.7099 C   0  0  0  0  0  0  0  0  0  0  0  0
    9.0463  -15.3165   23.7924 C   0  0  2  0  0  0  0  0  0  0  0  0
    9.3512  -16.3121   22.7659 N   0  0  0  0  0  0  0  0  0  0  0  0
    9.4494  -15.8145   25.1334 C   0  0  0  0  0  0  0  0  0  0  0  0
    9.3399  -17.0456   25.3728 O   0  0  0  0  0  0  0  0  0  0  0  0
    7.4233  -12.6879   24.7170 C   0  0  0  0  0  0  0  0  0  0  0  0
    7.0070  -11.8353   25.7181 C   0  0  0  0  0  0  0  0  0  0  0  0
   10.8012  -14.2826   28.3172 C   0  0  0  0  0  0  0  0  0  0  0  0
   10.4958  -15.4315   27.3899 C   0  0  2  0  0  0  0  0  0  0  0  0
    9.9512  -14.9567   26.1513 N   0  0  0  0  0  0  0  0  0  0  0  0
    9.6002  -16.3896   28.0776 C   0  0  0  0  0  0  0  0  0  0  0  0
   10.1389  -17.3175   28.7324 O   0  0  0  0  0  0  0  0  0  0  0  0
    8.2225  -16.3397   28.0534 O   0  0  0  0  0  0  0  0  0  0  0  0
  2  1  1  6
  3  2  1  0
  3  4  1  0
  4  5  2  0
  6  2  1  0
  7  6  2  0
  8  4  1  0
  9 10  1  0
 10 11  2  0
 10 20  1  0
 11 12  1  0
 12 13  2  0
 13 14  1  0
 15 14  1  1
 15 17  1  0
 15 16  1  0
 16  6  1  0
 17 23  1  0
 18 17  2  0
 19 13  1  0
 20 19  2  0
 22 21  1  1
 22 24  1  0
 23 22  1  0
 24 25  2  0
 24 26  1  0
M  END
$$$$
