DYA.pdb
     RDKit          3D

 26 26  0  0  1  0  0  0  0  0999 V2000
    9.2664  -16.9549   19.2222 N   0  0  0  0  0  0  0  0  0  0  0  0
   10.3493  -17.1890   20.1384 C   0  0  1  0  0  0  0  0  0  0  0  0
   11.6707  -16.9761   19.4487 C   0  0  0  0  0  0  0  0  0  0  0  0
   11.7088  -17.8092   18.2350 C   0  0  0  0  0  0  0  0  0  0  0  0
   11.9730  -17.2999   17.1321 O   0  0  0  0  0  0  0  0  0  0  0  0
   10.2070  -16.3903   21.3848 C   0  0  0  0  0  0  0  0  0  0  0  0
   11.2498  -16.1251   22.0214 O   0  0  0  0  0  0  0  0  0  0  0  0
   11.4516  -19.1621   18.3109 O   0  0  0  0  0  0  0  0  0  0  0  0
    6.5913  -11.6417   27.8997 O   0  0  0  0  0  0  0  0  0  0  0  0
    6.8186  -12.3382   26.7263 C   0  0  0  0  0  0  0  0  0  0  0  0
    6.2052  -13.5594   26.5484 C   0  0  0  0  0  0  0  0  0  0  0  0
    6.4281  -14.2533   25.3869 C   0  0  0  0  0  0  0  0  0  0  0  0
    7.2635  -13.7349   24.3950 C   0  0  0  0  0  0  0  0  0  0  0  0
    7.4933  -14.5118   23.1600 C   0  0  0  0  0  0  0  0  0  0  0  0
    8.8218  -15.2369   23.1368 C   0  0  2  0  0  0  0  0  0  0  0  0
    8.9551  -15.9342   21.8586 N   0  0  0  0  0  0  0  0  0  0  0  0
    8.9821  -16.1896   24.2662 C   0  0  0  0  0  0  0  0  0  0  0  0
    8.1633  -17.1405   24.3682 O   0  0  0  0  0  0  0  0  0  0  0  0
    7.8664  -12.5073   24.5994 C   0  0  0  0  0  0  0  0  0  0  0  0
    7.6507  -11.7989   25.7630 C   0  0  0  0  0  0  0  0  0  0  0  0
   11.7071  -17.5147   26.1948 C   0  0  0  0  0  0  0  0  0  0  0  0
   10.2751  -17.0460   26.2482 C   0  0  2  0  0  0  0  0  0  0  0  0
   10.0201  -16.0676   25.2313 N   0  0  0  0  0  0  0  0  0  0  0  0
    9.9750  -16.5462   27.6095 C   0  0  0  0  0  0  0  0  0  0  0  0
   10.0925  -17.3573   28.5625 O   0  0  0  0  0  0  0  0  0  0  0  0
    9.5775  -15.2603   27.9089 O   0  0  0  0  0  0  0  0  0  0  0  0
  2  1  1  6
  3  2  1  0
  3  4  1  0
  4  5  2  0
  6  2  1  0
  7  6  2  0
  8  4  1  0
  9 10  1  0
 10 11  2  0
 10 20  1  0
 11 12  1  0
 12 13  2  0
 13 14  1  0
 15 14  1  6
 15 17  1  0
 15 16  1  0
 16  6  1  0
 17 23  1  0
 18 17  2  0
 19 13  1  0
 20 19  2  0
 22 21  1  1
 22 24  1  0
 23 22  1  0
 24 25  2  0
 24 26  1  0
M  END
$$$$
