DYA.pdb
     RDKit          3D

 26 26  0  0  1  0  0  0  0  0999 V2000
   11.0358  -16.5367   19.0748 N   0  0  0  0  0  0  0  0  0  0  0  0
   10.2534  -17.1962   20.0847 C   0  0  1  0  0  0  0  0  0  0  0  0
   10.7881  -18.5811   20.3363 C   0  0  0  0  0  0  0  0  0  0  0  0
   10.6999  -19.3549   19.0865 C   0  0  0  0  0  0  0  0  0  0  0  0
   10.7263  -18.7761   17.9866 O   0  0  0  0  0  0  0  0  0  0  0  0
   10.1410  -16.3808   21.3232 C   0  0  0  0  0  0  0  0  0  0  0  0
   11.1942  -15.8978   21.7927 O   0  0  0  0  0  0  0  0  0  0  0  0
   10.5869  -20.7290   19.1250 O   0  0  0  0  0  0  0  0  0  0  0  0
    6.7063  -11.6972   27.9684 O   0  0  0  0  0  0  0  0  0  0  0  0
    6.8928  -12.4478   26.8215 C   0  0  0  0  0  0  0  0  0  0  0  0
    7.6494  -11.9204   25.7975 C   0  0  0  0  0  0  0  0  0  0  0  0
    7.8365  -12.6609   24.6585 C   0  0  0  0  0  0  0  0  0  0  0  0
    7.2711  -13.9316   24.5326 C   0  0  0  0  0  0  0  0  0  0  0  0
    7.4807  -14.6999   23.2886 C   0  0  0  0  0  0  0  0  0  0  0  0
    8.8227  -15.3971   23.2241 C   0  0  2  0  0  0  0  0  0  0  0  0
    8.9056  -16.1429   21.9692 N   0  0  0  0  0  0  0  0  0  0  0  0
    9.0634  -16.2994   24.3802 C   0  0  0  0  0  0  0  0  0  0  0  0
    8.3627  -17.3403   24.4835 O   0  0  0  0  0  0  0  0  0  0  0  0
    6.5162  -14.4368   25.5755 C   0  0  0  0  0  0  0  0  0  0  0  0
    6.3203  -13.7026   26.7265 C   0  0  0  0  0  0  0  0  0  0  0  0
   11.7244  -16.5922   27.0283 C   0  0  0  0  0  0  0  0  0  0  0  0
   10.3972  -16.9543   26.4114 C   0  0  2  0  0  0  0  0  0  0  0  0
   10.0504  -16.0324   25.3693 N   0  0  0  0  0  0  0  0  0  0  0  0
    9.3684  -17.0284   27.4740 C   0  0  0  0  0  0  0  0  0  0  0  0
    8.4011  -16.2293   27.3995 O   0  0  0  0  0  0  0  0  0  0  0  0
    9.3925  -17.9068   28.5366 O   0  0  0  0  0  0  0  0  0  0  0  0
  2  1  1  6
  3  2  1  0
  3  4  1  0
  4  5  2  0
  6  2  1  0
  7  6  2  0
  8  4  1  0
  9 10  1  0
 10 11  2  0
 10 20  1  0
 11 12  1  0
 12 13  2  0
 13 14  1  0
 15 14  1  1
 15 17  1  0
 15 16  1  0
 16  6  1  0
 17 23  1  0
 18 17  2  0
 19 13  1  0
 20 19  2  0
 22 21  1  1
 22 24  1  0
 23 22  1  0
 24 25  2  0
 24 26  1  0
M  END
$$$$
