DYA.pdb
     RDKit          3D

 26 26  0  0  1  0  0  0  0  0999 V2000
    9.9614  -17.4063   19.1806 N   0  0  0  0  0  0  0  0  0  0  0  0
   10.2614  -18.2065   20.3368 C   0  0  1  0  0  0  0  0  0  0  0  0
   11.5646  -18.9351   20.1422 C   0  0  0  0  0  0  0  0  0  0  0  0
   11.4398  -19.8205   18.9721 C   0  0  0  0  0  0  0  0  0  0  0  0
   11.9666  -19.5086   17.8900 O   0  0  0  0  0  0  0  0  0  0  0  0
   10.2208  -17.4095   21.5917 C   0  0  0  0  0  0  0  0  0  0  0  0
   11.2274  -16.7228   21.8710 O   0  0  0  0  0  0  0  0  0  0  0  0
   10.7373  -21.0036   19.0661 O   0  0  0  0  0  0  0  0  0  0  0  0
    7.4346  -12.1715   19.3263 O   0  0  0  0  0  0  0  0  0  0  0  0
    7.5317  -13.0479   20.3922 C   0  0  0  0  0  0  0  0  0  0  0  0
    6.8058  -14.2189   20.3584 C   0  0  0  0  0  0  0  0  0  0  0  0
    6.8989  -15.0904   21.4131 C   0  0  0  0  0  0  0  0  0  0  0  0
    7.7159  -14.8009   22.5081 C   0  0  0  0  0  0  0  0  0  0  0  0
    7.7858  -15.7540   23.6343 C   0  0  0  0  0  0  0  0  0  0  0  0
    9.0576  -16.5743   23.6577 C   0  0  2  0  0  0  0  0  0  0  0  0
    9.1023  -17.4076   22.4570 N   0  0  0  0  0  0  0  0  0  0  0  0
    9.1830  -17.4149   24.8769 C   0  0  0  0  0  0  0  0  0  0  0  0
    8.2858  -18.2661   25.1124 O   0  0  0  0  0  0  0  0  0  0  0  0
    8.4334  -13.6186   22.5163 C   0  0  0  0  0  0  0  0  0  0  0  0
    8.3490  -12.7334   21.4619 C   0  0  0  0  0  0  0  0  0  0  0  0
   11.8163  -18.8114   26.8715 C   0  0  0  0  0  0  0  0  0  0  0  0
   10.4603  -18.1535   26.9157 C   0  0  2  0  0  0  0  0  0  0  0  0
   10.2729  -17.2941   25.7832 N   0  0  0  0  0  0  0  0  0  0  0  0
   10.3045  -17.4417   28.2048 C   0  0  0  0  0  0  0  0  0  0  0  0
   10.1406  -16.1962   28.1619 O   0  0  0  0  0  0  0  0  0  0  0  0
   10.3254  -18.0419   29.4460 O   0  0  0  0  0  0  0  0  0  0  0  0
  2  1  1  6
  3  2  1  0
  3  4  1  0
  4  5  2  0
  6  2  1  0
  7  6  2  0
  8  4  1  0
  9 10  1  0
 10 11  2  0
 10 20  1  0
 11 12  1  0
 12 13  2  0
 13 14  1  0
 15 14  1  1
 15 17  1  0
 15 16  1  0
 16  6  1  0
 17 23  1  0
 18 17  2  0
 19 13  1  0
 20 19  2  0
 22 21  1  1
 22 24  1  0
 23 22  1  0
 24 25  2  0
 24 26  1  0
M  END
$$$$
