DYA.pdb
     RDKit          3D

 26 26  0  0  1  0  0  0  0  0999 V2000
   10.3183  -17.9841   20.8124 N   0  0  0  0  0  0  0  0  0  0  0  0
   11.3960  -17.1517   21.2734 C   0  0  1  0  0  0  0  0  0  0  0  0
   12.1083  -16.5262   20.1035 C   0  0  0  0  0  0  0  0  0  0  0  0
   12.6777  -17.5982   19.2699 C   0  0  0  0  0  0  0  0  0  0  0  0
   11.9324  -18.4201   18.7090 O   0  0  0  0  0  0  0  0  0  0  0  0
   10.9398  -16.1553   22.2787 C   0  0  0  0  0  0  0  0  0  0  0  0
   11.7720  -15.3080   22.6690 O   0  0  0  0  0  0  0  0  0  0  0  0
   14.0431  -17.7003   19.1040 O   0  0  0  0  0  0  0  0  0  0  0  0
    5.7846  -11.6199   27.8254 O   0  0  0  0  0  0  0  0  0  0  0  0
    6.2744  -12.4182   26.8075 C   0  0  0  0  0  0  0  0  0  0  0  0
    6.0403  -13.7755   26.8557 C   0  0  0  0  0  0  0  0  0  0  0  0
    6.5245  -14.5707   25.8488 C   0  0  0  0  0  0  0  0  0  0  0  0
    7.2450  -14.0187   24.7874 C   0  0  0  0  0  0  0  0  0  0  0  0
    7.7639  -14.9029   23.7241 C   0  0  0  0  0  0  0  0  0  0  0  0
    9.2297  -15.2462   23.8812 C   0  0  2  0  0  0  0  0  0  0  0  0
    9.6226  -16.1407   22.7933 N   0  0  0  0  0  0  0  0  0  0  0  0
    9.5433  -15.8616   25.1971 C   0  0  0  0  0  0  0  0  0  0  0  0
    9.4436  -17.1113   25.3127 O   0  0  0  0  0  0  0  0  0  0  0  0
    7.4656  -12.6536   24.7639 C   0  0  0  0  0  0  0  0  0  0  0  0
    6.9841  -11.8424   25.7701 C   0  0  0  0  0  0  0  0  0  0  0  0
   11.2309  -14.5804   28.3150 C   0  0  0  0  0  0  0  0  0  0  0  0
   10.5970  -15.6590   27.4736 C   0  0  2  0  0  0  0  0  0  0  0  0
    9.9492  -15.0956   26.3250 N   0  0  0  0  0  0  0  0  0  0  0  0
    9.6757  -16.4567   28.3148 C   0  0  0  0  0  0  0  0  0  0  0  0
    8.4541  -16.4311   28.0198 O   0  0  0  0  0  0  0  0  0  0  0  0
   10.0572  -17.2240   29.3951 O   0  0  0  0  0  0  0  0  0  0  0  0
  2  1  1  6
  3  2  1  0
  3  4  1  0
  4  5  2  0
  6  2  1  0
  7  6  2  0
  8  4  1  0
  9 10  1  0
 10 11  2  0
 10 20  1  0
 11 12  1  0
 12 13  2  0
 13 14  1  0
 15 14  1  1
 15 17  1  0
 15 16  1  0
 16  6  1  0
 17 23  1  0
 18 17  2  0
 19 13  1  0
 20 19  2  0
 22 21  1  1
 22 24  1  0
 23 22  1  0
 24 25  2  0
 24 26  1  0
M  END
$$$$
