DYA.pdb
     RDKit          3D

 26 26  0  0  1  0  0  0  0  0999 V2000
    9.7484  -16.5796   18.3647 N   0  0  0  0  0  0  0  0  0  0  0  0
    9.5286  -17.3886   19.5326 C   0  0  1  0  0  0  0  0  0  0  0  0
   10.4679  -18.5654   19.5356 C   0  0  0  0  0  0  0  0  0  0  0  0
   10.2450  -19.3499   18.3095 C   0  0  0  0  0  0  0  0  0  0  0  0
   10.0056  -18.7768   17.2325 O   0  0  0  0  0  0  0  0  0  0  0  0
    9.5924  -16.5886   20.7846 C   0  0  0  0  0  0  0  0  0  0  0  0
   10.7235  -16.2472   21.1932 O   0  0  0  0  0  0  0  0  0  0  0  0
   10.2997  -20.7275   18.3449 O   0  0  0  0  0  0  0  0  0  0  0  0
    7.0596  -11.6587   27.6689 O   0  0  0  0  0  0  0  0  0  0  0  0
    7.0957  -12.4179   26.5131 C   0  0  0  0  0  0  0  0  0  0  0  0
    7.7626  -11.9232   25.4132 C   0  0  0  0  0  0  0  0  0  0  0  0
    7.8005  -12.6723   24.2652 C   0  0  0  0  0  0  0  0  0  0  0  0
    7.1744  -13.9193   24.2058 C   0  0  0  0  0  0  0  0  0  0  0  0
    7.2227  -14.6972   22.9512 C   0  0  0  0  0  0  0  0  0  0  0  0
    8.5207  -15.4503   22.7530 C   0  0  2  0  0  0  0  0  0  0  0  0
    8.4370  -16.2129   21.5083 N   0  0  0  0  0  0  0  0  0  0  0  0
    8.8492  -16.3488   23.8903 C   0  0  0  0  0  0  0  0  0  0  0  0
    8.0475  -17.2783   24.1700 O   0  0  0  0  0  0  0  0  0  0  0  0
    6.5121  -14.3918   25.3241 C   0  0  0  0  0  0  0  0  0  0  0  0
    6.4664  -13.6485   26.4851 C   0  0  0  0  0  0  0  0  0  0  0  0
   11.9345  -17.2049   25.7774 C   0  0  0  0  0  0  0  0  0  0  0  0
   10.4315  -17.1285   25.6853 C   0  0  2  0  0  0  0  0  0  0  0  0
   10.0290  -16.1984   24.6708 N   0  0  0  0  0  0  0  0  0  0  0  0
    9.8766  -16.7961   27.0175 C   0  0  0  0  0  0  0  0  0  0  0  0
   10.1021  -17.6018   27.9556 O   0  0  0  0  0  0  0  0  0  0  0  0
    9.1330  -15.6711   27.3049 O   0  0  0  0  0  0  0  0  0  0  0  0
  2  1  1  6
  3  2  1  0
  3  4  1  0
  4  5  2  0
  6  2  1  0
  7  6  2  0
  8  4  1  0
  9 10  1  0
 10 11  2  0
 10 20  1  0
 11 12  1  0
 12 13  2  0
 13 14  1  0
 15 14  1  1
 15 17  1  0
 15 16  1  0
 16  6  1  0
 17 23  1  0
 18 17  2  0
 19 13  1  0
 20 19  2  0
 22 21  1  1
 22 24  1  0
 23 22  1  0
 24 25  2  0
 24 26  1  0
M  END
$$$$
