PNR.pdb
     RDKit          3D

 27 27  0  0  1  0  0  0  0  0999 V2000
   19.5523  -10.4102  -17.7173 N   0  0  0  0  0  0  0  0  0  0  0  0
   20.7633  -11.0807  -18.0817 C   0  0  0  0  0  0  0  0  0  0  0  0
   20.4558  -12.5375  -17.7553 C   0  0  0  0  0  0  0  0  0  0  0  0
   19.8793  -12.3416  -16.3422 C   0  0  0  0  0  0  0  0  0  0  0  0
   19.0809  -11.0499  -16.5173 C   0  0  1  0  0  0  0  0  0  0  0  0
   19.3035  -10.1742  -15.3419 C   0  0  0  0  0  0  0  0  0  0  0  0
   18.9284  -10.5694  -14.1928 O   0  0  0  0  0  0  0  0  0  0  0  0
   21.9182   -5.1570  -13.0745 N   0  0  0  0  0  0  0  0  0  0  0  0
   21.4792   -6.5059  -13.0530 C   0  0  0  0  0  0  0  0  0  0  0  0
   21.3203   -7.0142  -11.9151 O   0  0  0  0  0  0  0  0  0  0  0  0
   21.2471   -7.1975  -14.3377 C   0  0  0  0  0  0  0  0  0  0  0  0
   20.0449   -8.0934  -14.2040 C   0  0  2  0  0  0  0  0  0  0  0  0
   19.9244   -8.8869  -15.4118 N   0  0  0  0  0  0  0  0  0  0  0  0
   18.8639   -7.2013  -14.0680 C   0  0  0  0  0  0  0  0  0  0  0  0
   18.4456   -6.6277  -15.1311 O   0  0  0  0  0  0  0  0  0  0  0  0
   13.2206   -7.7497   -8.3038 N   0  0  0  0  0  0  0  0  0  0  0  0
   14.3415   -6.9398   -7.9904 C   0  0  0  0  0  0  0  0  0  0  0  0
   14.7055   -6.8249   -6.7766 N   0  0  0  0  0  0  0  0  0  0  0  0
   15.0259   -6.2791   -9.0306 N   0  0  0  0  0  0  0  0  0  0  0  0
   14.3370   -5.9532  -10.2519 C   0  0  0  0  0  0  0  0  0  0  0  0
   15.2767   -5.2132  -11.2177 C   0  0  0  0  0  0  0  0  0  0  0  0
   16.5052   -6.0629  -11.4012 C   0  0  0  0  0  0  0  0  0  0  0  0
   17.0318   -6.0270  -12.8093 C   0  0  2  0  0  0  0  0  0  0  0  0
   18.1762   -6.9398  -12.8789 N   0  0  0  0  0  0  0  0  0  0  0  0
   17.4564   -4.6739  -13.1764 C   0  0  0  0  0  0  0  0  0  0  0  0
   16.7425   -3.8074  -13.9828 O   0  0  0  0  0  0  0  0  0  0  0  0
   18.5559   -4.2277  -12.7439 O   0  0  0  0  0  0  0  0  0  0  0  0
  1  2  1  0
  3  2  1  0
  4  5  1  0
  4  3  1  0
  5  1  1  0
  5  6  1  1
  6  7  2  0
  8  9  1  0
  9 11  1  0
 10  9  2  0
 12 11  1  6
 12 13  1  0
 13  6  1  0
 14 12  1  0
 15 14  2  0
 16 17  1  0
 17 19  1  0
 18 17  2  0
 19 20  1  0
 21 20  1  0
 22 21  1  0
 23 22  1  1
 23 24  1  0
 24 14  1  0
 25 23  1  0
 26 25  1  0
 27 25  2  0
M  END
$$$$
