PNR.pdb
     RDKit          3D

 27 27  0  0  1  0  0  0  0  0999 V2000
   24.6658  -21.9316  -16.2749 N   0  0  0  0  0  0  0  0  0  0  0  0
   25.5894  -21.0031  -16.8524 C   0  0  0  0  0  0  0  0  0  0  0  0
   26.9025  -21.3591  -16.1651 C   0  0  0  0  0  0  0  0  0  0  0  0
   26.3991  -21.4023  -14.7117 C   0  0  0  0  0  0  0  0  0  0  0  0
   25.0254  -22.0496  -14.8863 C   0  0  1  0  0  0  0  0  0  0  0  0
   24.0396  -21.3423  -14.0341 C   0  0  0  0  0  0  0  0  0  0  0  0
   24.2923  -21.1762  -12.7989 O   0  0  0  0  0  0  0  0  0  0  0  0
   20.5390  -18.8180  -11.7465 N   0  0  0  0  0  0  0  0  0  0  0  0
   20.5950  -18.2460  -13.0436 C   0  0  0  0  0  0  0  0  0  0  0  0
   19.9210  -17.1993  -13.2124 O   0  0  0  0  0  0  0  0  0  0  0  0
   21.4206  -18.9062  -14.0756 C   0  0  0  0  0  0  0  0  0  0  0  0
   21.8535  -20.2564  -13.5699 C   0  0  2  0  0  0  0  0  0  0  0  0
   22.7963  -20.8224  -14.5152 N   0  0  0  0  0  0  0  0  0  0  0  0
   20.6310  -21.0997  -13.5121 C   0  0  0  0  0  0  0  0  0  0  0  0
   20.1970  -21.5677  -14.6198 O   0  0  0  0  0  0  0  0  0  0  0  0
   17.8682  -25.0230   -6.4375 N   0  0  0  0  0  0  0  0  0  0  0  0
   18.1057  -26.0212   -7.4163 C   0  0  0  0  0  0  0  0  0  0  0  0
   18.0514  -27.2470   -7.0799 N   0  0  0  0  0  0  0  0  0  0  0  0
   18.3982  -25.6324   -8.7393 N   0  0  0  0  0  0  0  0  0  0  0  0
   18.4018  -24.2375   -9.0952 C   0  0  0  0  0  0  0  0  0  0  0  0
   18.5363  -24.0719  -10.6177 C   0  0  0  0  0  0  0  0  0  0  0  0
   18.3954  -22.6070  -10.9323 C   0  0  0  0  0  0  0  0  0  0  0  0
   18.7356  -22.2840  -12.3611 C   0  0  2  0  0  0  0  0  0  0  0  0
   19.9207  -21.4220  -12.3515 N   0  0  0  0  0  0  0  0  0  0  0  0
   17.6263  -21.5912  -13.0209 C   0  0  0  0  0  0  0  0  0  0  0  0
   16.6142  -22.2074  -13.7327 O   0  0  0  0  0  0  0  0  0  0  0  0
   17.5543  -20.3317  -12.9592 O   0  0  0  0  0  0  0  0  0  0  0  0
  1  2  1  0
  3  2  1  0
  4  5  1  0
  4  3  1  0
  5  1  1  0
  5  6  1  1
  6  7  2  0
  8  9  1  0
  9 11  1  0
 10  9  2  0
 12 11  1  6
 12 13  1  0
 13  6  1  0
 14 12  1  0
 15 14  2  0
 16 17  1  0
 17 19  1  0
 18 17  2  0
 19 20  1  0
 21 20  1  0
 22 21  1  0
 23 22  1  1
 23 24  1  0
 24 14  1  0
 25 23  1  0
 26 25  1  0
 27 25  2  0
M  END
$$$$
