PNR.pdb
     RDKit          3D

 27 27  0  0  1  0  0  0  0  0999 V2000
   29.8343  -19.7631  -11.8225 N   0  0  0  0  0  0  0  0  0  0  0  0
   29.6678  -19.9881  -10.4188 C   0  0  0  0  0  0  0  0  0  0  0  0
   29.3416  -21.4755  -10.3501 C   0  0  0  0  0  0  0  0  0  0  0  0
   28.2609  -21.5264  -11.4443 C   0  0  0  0  0  0  0  0  0  0  0  0
   28.8348  -20.5617  -12.4817 C   0  0  1  0  0  0  0  0  0  0  0  0
   27.7463  -19.7013  -13.0043 C   0  0  0  0  0  0  0  0  0  0  0  0
   27.2907  -18.7643  -12.2751 O   0  0  0  0  0  0  0  0  0  0  0  0
   26.9886  -16.3502  -14.4409 N   0  0  0  0  0  0  0  0  0  0  0  0
   27.3046  -17.1219  -15.5887 C   0  0  0  0  0  0  0  0  0  0  0  0
   28.3250  -16.7637  -16.2281 O   0  0  0  0  0  0  0  0  0  0  0  0
   26.4327  -18.2616  -15.9400 C   0  0  0  0  0  0  0  0  0  0  0  0
   26.0544  -18.9976  -14.6825 C   0  0  2  0  0  0  0  0  0  0  0  0
   27.1594  -19.8555  -14.3002 N   0  0  0  0  0  0  0  0  0  0  0  0
   24.8664  -19.8259  -15.0168 C   0  0  0  0  0  0  0  0  0  0  0  0
   25.0624  -20.8460  -15.7620 O   0  0  0  0  0  0  0  0  0  0  0  0
   16.3386  -18.9714  -12.9296 N   0  0  0  0  0  0  0  0  0  0  0  0
   16.3263  -20.1473  -13.7220 C   0  0  0  0  0  0  0  0  0  0  0  0
   15.2189  -20.7299  -13.9526 N   0  0  0  0  0  0  0  0  0  0  0  0
   17.5414  -20.6447  -14.2348 N   0  0  0  0  0  0  0  0  0  0  0  0
   18.7871  -20.0301  -13.8570 C   0  0  0  0  0  0  0  0  0  0  0  0
   19.9535  -20.6543  -14.6402 C   0  0  0  0  0  0  0  0  0  0  0  0
   21.1930  -19.8619  -14.3231 C   0  0  0  0  0  0  0  0  0  0  0  0
   22.4230  -20.4159  -14.9877 C   0  0  2  0  0  0  0  0  0  0  0  0
   23.5591  -19.5825  -14.5847 N   0  0  0  0  0  0  0  0  0  0  0  0
   22.2867  -20.3931  -16.4462 C   0  0  0  0  0  0  0  0  0  0  0  0
   22.4662  -19.2792  -17.2446 O   0  0  0  0  0  0  0  0  0  0  0  0
   21.9804  -21.4540  -17.0593 O   0  0  0  0  0  0  0  0  0  0  0  0
  1  2  1  0
  3  2  1  0
  4  5  1  0
  4  3  1  0
  5  1  1  0
  5  6  1  1
  6  7  2  0
  8  9  1  0
  9 11  1  0
 10  9  2  0
 12 11  1  6
 12 13  1  0
 13  6  1  0
 14 12  1  0
 15 14  2  0
 16 17  1  0
 17 19  1  0
 18 17  2  0
 19 20  1  0
 21 20  1  0
 22 21  1  0
 23 22  1  1
 23 24  1  0
 24 14  1  0
 25 23  1  0
 26 25  1  0
 27 25  2  0
M  END
$$$$
