PNR.pdb
     RDKit          3D

 27 27  0  0  1  0  0  0  0  0999 V2000
   27.7337  -18.1031  -17.1483 N   0  0  0  0  0  0  0  0  0  0  0  0
   28.0672  -19.3105  -16.4558 C   0  0  0  0  0  0  0  0  0  0  0  0
   28.4538  -20.2551  -17.5879 C   0  0  0  0  0  0  0  0  0  0  0  0
   27.2530  -20.0064  -18.5174 C   0  0  0  0  0  0  0  0  0  0  0  0
   27.0457  -18.5015  -18.3480 C   0  0  1  0  0  0  0  0  0  0  0  0
   25.5951  -18.2178  -18.2317 C   0  0  0  0  0  0  0  0  0  0  0  0
   24.8027  -18.6565  -19.1242 O   0  0  0  0  0  0  0  0  0  0  0  0
   21.4726  -15.2353  -19.6766 N   0  0  0  0  0  0  0  0  0  0  0  0
   21.9577  -15.8947  -18.5178 C   0  0  0  0  0  0  0  0  0  0  0  0
   21.1521  -15.9831  -17.5578 O   0  0  0  0  0  0  0  0  0  0  0  0
   23.3401  -16.4157  -18.5239 C   0  0  0  0  0  0  0  0  0  0  0  0
   23.6039  -17.1259  -17.2232 C   0  0  2  0  0  0  0  0  0  0  0  0
   25.0118  -17.4678  -17.1616 N   0  0  0  0  0  0  0  0  0  0  0  0
   22.7852  -18.3663  -17.2433 C   0  0  0  0  0  0  0  0  0  0  0  0
   23.1567  -19.2928  -18.0421 O   0  0  0  0  0  0  0  0  0  0  0  0
   18.8952  -21.7840  -11.6828 N   0  0  0  0  0  0  0  0  0  0  0  0
   19.5135  -22.8449  -12.3918 C   0  0  0  0  0  0  0  0  0  0  0  0
   18.9383  -23.9789  -12.4398 N   0  0  0  0  0  0  0  0  0  0  0  0
   20.7522  -22.6196  -13.0257 N   0  0  0  0  0  0  0  0  0  0  0  0
   21.3682  -21.3202  -12.9600 C   0  0  0  0  0  0  0  0  0  0  0  0
   20.7751  -20.3897  -14.0305 C   0  0  0  0  0  0  0  0  0  0  0  0
   21.4496  -20.7081  -15.3375 C   0  0  0  0  0  0  0  0  0  0  0  0
   20.9283  -19.8781  -16.4780 C   0  0  2  0  0  0  0  0  0  0  0  0
   21.6484  -18.6019  -16.4640 N   0  0  0  0  0  0  0  0  0  0  0  0
   19.4906  -19.6355  -16.3362 C   0  0  0  0  0  0  0  0  0  0  0  0
   18.9198  -18.4341  -15.9602 O   0  0  0  0  0  0  0  0  0  0  0  0
   18.6757  -20.5730  -16.5648 O   0  0  0  0  0  0  0  0  0  0  0  0
  1  2  1  0
  3  2  1  0
  4  5  1  0
  4  3  1  0
  5  1  1  0
  5  6  1  1
  6  7  2  0
  8  9  1  0
  9 11  1  0
 10  9  2  0
 12 11  1  6
 12 13  1  0
 13  6  1  0
 14 12  1  0
 15 14  2  0
 16 17  1  0
 17 19  1  0
 18 17  2  0
 19 20  1  0
 21 20  1  0
 22 21  1  0
 23 22  1  1
 23 24  1  0
 24 14  1  0
 25 23  1  0
 26 25  1  0
 27 25  2  0
M  END
$$$$
