PNR.pdb
     RDKit          3D

 27 27  0  0  1  0  0  0  0  0999 V2000
   26.7010  -17.3369  -17.5512 N   0  0  0  0  0  0  0  0  0  0  0  0
   26.9277  -16.0146  -18.0501 C   0  0  0  0  0  0  0  0  0  0  0  0
   27.8377  -15.4038  -16.9908 C   0  0  0  0  0  0  0  0  0  0  0  0
   27.0419  -15.8118  -15.7386 C   0  0  0  0  0  0  0  0  0  0  0  0
   26.5699  -17.2138  -16.1233 C   0  0  1  0  0  0  0  0  0  0  0  0
   25.1540  -17.3819  -15.7169 C   0  0  0  0  0  0  0  0  0  0  0  0
   24.8446  -17.2826  -14.4874 O   0  0  0  0  0  0  0  0  0  0  0  0
   20.1725  -17.8293  -15.4179 N   0  0  0  0  0  0  0  0  0  0  0  0
   20.4139  -17.9838  -16.8074 C   0  0  0  0  0  0  0  0  0  0  0  0
   19.3942  -18.0601  -17.5373 O   0  0  0  0  0  0  0  0  0  0  0  0
   21.8114  -18.0428  -17.2828 C   0  0  0  0  0  0  0  0  0  0  0  0
   22.7369  -17.7904  -16.1227 C   0  0  2  0  0  0  0  0  0  0  0  0
   24.0880  -17.6544  -16.6317 N   0  0  0  0  0  0  0  0  0  0  0  0
   22.6486  -18.9844  -15.2420 C   0  0  0  0  0  0  0  0  0  0  0  0
   23.0850  -20.0882  -15.7169 O   0  0  0  0  0  0  0  0  0  0  0  0
   26.9041  -20.1349  -11.6080 N   0  0  0  0  0  0  0  0  0  0  0  0
   26.7832  -21.2138  -10.6959 C   0  0  0  0  0  0  0  0  0  0  0  0
   27.6581  -22.1376  -10.7062 N   0  0  0  0  0  0  0  0  0  0  0  0
   25.6955  -21.2391   -9.7996 N   0  0  0  0  0  0  0  0  0  0  0  0
   24.5737  -20.3606  -10.0047 C   0  0  0  0  0  0  0  0  0  0  0  0
   23.6557  -20.9100  -11.1087 C   0  0  0  0  0  0  0  0  0  0  0  0
   23.1367  -19.7378  -11.8970 C   0  0  0  0  0  0  0  0  0  0  0  0
   22.2645  -20.1528  -13.0496 C   0  0  2  0  0  0  0  0  0  0  0  0
   22.1307  -18.9991  -13.9432 N   0  0  0  0  0  0  0  0  0  0  0  0
   20.9408  -20.5713  -12.5818 C   0  0  0  0  0  0  0  0  0  0  0  0
   20.6010  -21.8559  -12.2010 O   0  0  0  0  0  0  0  0  0  0  0  0
   20.0093  -19.7215  -12.5083 O   0  0  0  0  0  0  0  0  0  0  0  0
  1  2  1  0
  3  2  1  0
  4  5  1  0
  4  3  1  0
  5  1  1  0
  5  6  1  6
  6  7  2  0
  8  9  1  0
  9 11  1  0
 10  9  2  0
 12 11  1  6
 12 13  1  0
 13  6  1  0
 14 12  1  0
 15 14  2  0
 16 17  1  0
 17 19  1  0
 18 17  2  0
 19 20  1  0
 21 20  1  0
 22 21  1  0
 23 22  1  1
 23 24  1  0
 24 14  1  0
 25 23  1  0
 26 25  1  0
 27 25  2  0
M  END
$$$$
