PNR.pdb
     RDKit          3D

 27 27  0  0  1  0  0  0  0  0999 V2000
   24.6565  -22.4715  -15.2559 N   0  0  0  0  0  0  0  0  0  0  0  0
   25.5168  -21.4800  -15.8266 C   0  0  0  0  0  0  0  0  0  0  0  0
   26.7241  -21.5025  -14.8964 C   0  0  0  0  0  0  0  0  0  0  0  0
   25.9807  -21.4390  -13.5506 C   0  0  0  0  0  0  0  0  0  0  0  0
   24.7751  -22.3367  -13.8280 C   0  0  1  0  0  0  0  0  0  0  0  0
   23.5568  -21.7074  -13.2642 C   0  0  0  0  0  0  0  0  0  0  0  0
   23.5152  -21.4368  -12.0224 O   0  0  0  0  0  0  0  0  0  0  0  0
   18.7467  -18.2698  -14.1495 N   0  0  0  0  0  0  0  0  0  0  0  0
   19.7811  -18.8505  -13.3712 C   0  0  0  0  0  0  0  0  0  0  0  0
   19.6410  -18.7728  -12.1251 O   0  0  0  0  0  0  0  0  0  0  0  0
   20.9191  -19.4877  -14.0650 C   0  0  0  0  0  0  0  0  0  0  0  0
   21.2529  -20.7833  -13.3752 C   0  0  2  0  0  0  0  0  0  0  0  0
   22.3989  -21.3763  -14.0370 N   0  0  0  0  0  0  0  0  0  0  0  0
   20.0677  -21.6660  -13.5337 C   0  0  0  0  0  0  0  0  0  0  0  0
   19.9614  -22.3005  -14.6385 O   0  0  0  0  0  0  0  0  0  0  0  0
   19.2189  -24.4864   -7.4924 N   0  0  0  0  0  0  0  0  0  0  0  0
   18.2984  -25.4788   -7.9147 C   0  0  0  0  0  0  0  0  0  0  0  0
   17.5265  -26.0158   -7.0575 N   0  0  0  0  0  0  0  0  0  0  0  0
   18.2608  -25.8491   -9.2743 N   0  0  0  0  0  0  0  0  0  0  0  0
   19.0716  -25.1464  -10.2341 C   0  0  0  0  0  0  0  0  0  0  0  0
   18.3701  -23.8558  -10.6877 C   0  0  0  0  0  0  0  0  0  0  0  0
   18.0622  -23.9941  -12.1542 C   0  0  0  0  0  0  0  0  0  0  0  0
   17.8701  -22.6673  -12.8355 C   0  0  2  0  0  0  0  0  0  0  0  0
   19.0651  -21.8589  -12.5784 N   0  0  0  0  0  0  0  0  0  0  0  0
   16.6862  -21.9777  -12.3170 C   0  0  0  0  0  0  0  0  0  0  0  0
   15.3874  -22.4390  -12.4212 O   0  0  0  0  0  0  0  0  0  0  0  0
   16.8208  -20.8711  -11.7232 O   0  0  0  0  0  0  0  0  0  0  0  0
  1  2  1  0
  3  2  1  0
  4  5  1  0
  4  3  1  0
  5  1  1  0
  5  6  1  6
  6  7  2  0
  8  9  1  0
  9 11  1  0
 10  9  2  0
 12 11  1  6
 12 13  1  0
 13  6  1  0
 14 12  1  0
 15 14  2  0
 16 17  1  0
 17 19  1  0
 18 17  2  0
 19 20  1  0
 21 20  1  0
 22 21  1  0
 23 22  1  1
 23 24  1  0
 24 14  1  0
 25 23  1  0
 26 25  1  0
 27 25  2  0
M  END
$$$$
