PNR.pdb
     RDKit          3D

 27 27  0  0  1  0  0  0  0  0999 V2000
   27.3518  -19.4780  -18.8665 N   0  0  0  0  0  0  0  0  0  0  0  0
   27.9393  -18.4441  -19.6632 C   0  0  0  0  0  0  0  0  0  0  0  0
   29.3374  -18.3123  -19.0705 C   0  0  0  0  0  0  0  0  0  0  0  0
   28.9528  -18.2472  -17.5820 C   0  0  0  0  0  0  0  0  0  0  0  0
   27.8108  -19.2614  -17.5197 C   0  0  1  0  0  0  0  0  0  0  0  0
   26.7169  -18.7150  -16.6813 C   0  0  0  0  0  0  0  0  0  0  0  0
   26.9564  -18.4066  -15.4711 O   0  0  0  0  0  0  0  0  0  0  0  0
   25.3795  -15.2207  -18.2406 N   0  0  0  0  0  0  0  0  0  0  0  0
   24.8713  -15.6260  -16.9796 C   0  0  0  0  0  0  0  0  0  0  0  0
   25.3538  -15.0403  -15.9784 O   0  0  0  0  0  0  0  0  0  0  0  0
   23.8380  -16.6810  -16.9366 C   0  0  0  0  0  0  0  0  0  0  0  0
   24.4073  -17.9001  -16.2616 C   0  0  2  0  0  0  0  0  0  0  0  0
   25.3808  -18.5064  -17.1492 N   0  0  0  0  0  0  0  0  0  0  0  0
   23.2720  -18.8348  -16.0459 C   0  0  0  0  0  0  0  0  0  0  0  0
   22.6765  -19.2735  -17.0886 O   0  0  0  0  0  0  0  0  0  0  0  0
   19.9507  -23.3329   -9.6033 N   0  0  0  0  0  0  0  0  0  0  0  0
   19.0364  -23.5536  -10.6644 C   0  0  0  0  0  0  0  0  0  0  0  0
   17.8437  -23.9050  -10.3944 N   0  0  0  0  0  0  0  0  0  0  0  0
   19.4702  -23.3800  -11.9943 N   0  0  0  0  0  0  0  0  0  0  0  0
   20.6316  -22.5765  -12.2733 C   0  0  0  0  0  0  0  0  0  0  0  0
   20.2191  -21.2370  -12.9048 C   0  0  0  0  0  0  0  0  0  0  0  0
   21.4766  -20.4664  -13.2046 C   0  0  0  0  0  0  0  0  0  0  0  0
   21.5793  -20.0607  -14.6489 C   0  0  2  0  0  0  0  0  0  0  0  0
   22.8048  -19.2718  -14.8026 N   0  0  0  0  0  0  0  0  0  0  0  0
   20.4218  -19.2585  -15.0523 C   0  0  0  0  0  0  0  0  0  0  0  0
   19.3593  -19.7185  -15.8073 O   0  0  0  0  0  0  0  0  0  0  0  0
   20.3528  -18.0464  -14.7041 O   0  0  0  0  0  0  0  0  0  0  0  0
  1  2  1  0
  3  2  1  0
  4  5  1  0
  4  3  1  0
  5  1  1  0
  5  6  1  1
  6  7  2  0
  8  9  1  0
  9 11  1  0
 10  9  2  0
 12 11  1  6
 12 13  1  0
 13  6  1  0
 14 12  1  0
 15 14  2  0
 16 17  1  0
 17 19  1  0
 18 17  2  0
 19 20  1  0
 21 20  1  0
 22 21  1  0
 23 22  1  1
 23 24  1  0
 24 14  1  0
 25 23  1  0
 26 25  1  0
 27 25  2  0
M  END
$$$$
