MCG.pdb
     RDKit          3D

 19 18  0  0  1  0  0  0  0  0999 V2000
   26.3175  -14.5919  -18.0657 C   0  0  0  0  0  0  0  0  0  0  0  0
   26.9764  -15.9206  -19.1358 S   0  0  0  0  0  0  0  0  0  0  0  0
   27.6686  -17.2307  -18.0804 C   0  0  0  0  0  0  0  0  0  0  0  0
   26.9001  -17.3357  -16.8088 C   0  0  0  0  0  0  0  0  0  0  0  0
   27.5466  -18.2489  -15.7688 C   0  0  2  0  0  0  0  0  0  0  0  0
   27.6979  -19.5321  -16.4980 N   0  0  0  0  0  0  0  0  0  0  0  0
   26.6122  -18.4937  -14.6454 C   0  0  0  0  0  0  0  0  0  0  0  0
   26.1887  -17.5335  -13.9343 O   0  0  0  0  0  0  0  0  0  0  0  0
   26.1097  -19.7731  -14.2628 N   0  0  0  0  0  0  0  0  0  0  0  0
   25.1969  -19.9386  -13.1717 C   0  0  1  0  0  0  0  0  0  0  0  0
   24.2492  -21.0842  -13.6000 C   0  0  0  0  0  0  0  0  0  0  0  0
   23.3043  -20.6144  -15.0572 S   0  0  0  0  0  0  0  0  0  0  0  0
   25.7639  -20.3349  -11.8938 C   0  0  0  0  0  0  0  0  0  0  0  0
   26.5833  -21.3046  -11.9066 O   0  0  0  0  0  0  0  0  0  0  0  0
   25.5033  -19.7547  -10.6269 N   0  0  0  0  0  0  0  0  0  0  0  0
   26.1728  -20.2119   -9.4153 C   0  0  0  0  0  0  0  0  0  0  0  0
   25.2226  -21.0333   -8.6428 C   0  0  0  0  0  0  0  0  0  0  0  0
   25.6150  -21.5201   -7.4144 O   0  0  0  0  0  0  0  0  0  0  0  0
   24.0805  -21.2977   -9.0687 O   0  0  0  0  0  0  0  0  0  0  0  0
  2  1  1  0
  3  2  1  0
  4  3  1  0
  4  5  1  0
  5  6  1  6
  7  5  1  0
  7  8  2  0
  9  7  1  0
 10  9  1  0
 10 11  1  6
 10 13  1  0
 11 12  1  0
 13 15  1  0
 13 14  2  0
 15 16  1  0
 16 17  1  0
 17 19  2  0
 17 18  1  0
M  END
$$$$
