MCG.pdb
     RDKit          3D

 19 18  0  0  1  0  0  0  0  0999 V2000
   30.5843   -9.2931  -16.9069 C   0  0  0  0  0  0  0  0  0  0  0  0
   30.1546   -8.5949  -18.5417 S   0  0  0  0  0  0  0  0  0  0  0  0
   29.1409   -9.8054  -19.4451 C   0  0  0  0  0  0  0  0  0  0  0  0
   27.7303   -9.7627  -18.9685 C   0  0  0  0  0  0  0  0  0  0  0  0
   27.4296  -10.7439  -17.8372 C   0  0  2  0  0  0  0  0  0  0  0  0
   27.4751  -12.0622  -18.5164 N   0  0  0  0  0  0  0  0  0  0  0  0
   26.0450  -10.5550  -17.3450 C   0  0  0  0  0  0  0  0  0  0  0  0
   25.0550  -10.9612  -18.0247 O   0  0  0  0  0  0  0  0  0  0  0  0
   25.6929   -9.9294  -16.1120 N   0  0  0  0  0  0  0  0  0  0  0  0
   24.3299   -9.7246  -15.7228 C   0  0  1  0  0  0  0  0  0  0  0  0
   24.2146  -10.3253  -14.3015 C   0  0  0  0  0  0  0  0  0  0  0  0
   22.5209  -10.2191  -13.7036 S   0  0  0  0  0  0  0  0  0  0  0  0
   23.8741   -8.3486  -15.6218 C   0  0  0  0  0  0  0  0  0  0  0  0
   24.6713   -7.5188  -15.0855 O   0  0  0  0  0  0  0  0  0  0  0  0
   22.6309   -7.8262  -16.0594 N   0  0  0  0  0  0  0  0  0  0  0  0
   22.2463   -6.4413  -15.8162 C   0  0  0  0  0  0  0  0  0  0  0  0
   20.9173   -6.2176  -16.4146 C   0  0  0  0  0  0  0  0  0  0  0  0
   19.8143   -6.7744  -15.8037 O   0  0  0  0  0  0  0  0  0  0  0  0
   20.7658   -5.5423  -17.4523 O   0  0  0  0  0  0  0  0  0  0  0  0
  2  1  1  0
  3  2  1  0
  4  3  1  0
  4  5  1  0
  5  6  1  6
  7  5  1  0
  7  8  2  0
  9  7  1  0
 10  9  1  0
 10 11  1  1
 10 13  1  0
 11 12  1  0
 13 15  1  0
 13 14  2  0
 15 16  1  0
 16 17  1  0
 17 19  2  0
 17 18  1  0
M  END
$$$$
