MCG.pdb
     RDKit          3D

 19 18  0  0  1  0  0  0  0  0999 V2000
   15.7234  -10.6409  -19.4738 C   0  0  0  0  0  0  0  0  0  0  0  0
   17.1289  -10.0045  -20.4557 S   0  0  0  0  0  0  0  0  0  0  0  0
   18.6787  -10.4538  -19.6157 C   0  0  0  0  0  0  0  0  0  0  0  0
   18.7417   -9.8243  -18.2672 C   0  0  0  0  0  0  0  0  0  0  0  0
   19.9650  -10.2345  -17.4496 C   0  0  2  0  0  0  0  0  0  0  0  0
   19.6372  -11.6187  -17.0281 N   0  0  0  0  0  0  0  0  0  0  0  0
   20.0609   -9.4155  -16.2186 C   0  0  0  0  0  0  0  0  0  0  0  0
   19.3856   -9.7138  -15.1882 O   0  0  0  0  0  0  0  0  0  0  0  0
   20.8855   -8.2612  -16.0658 N   0  0  0  0  0  0  0  0  0  0  0  0
   20.8646   -7.4610  -14.8782 C   0  0  1  0  0  0  0  0  0  0  0  0
   21.7833   -8.1952  -13.8727 C   0  0  0  0  0  0  0  0  0  0  0  0
   21.8550   -7.3038  -12.3115 S   0  0  0  0  0  0  0  0  0  0  0  0
   21.3804   -6.1070  -14.9880 C   0  0  0  0  0  0  0  0  0  0  0  0
   22.5957   -5.9831  -15.3336 O   0  0  0  0  0  0  0  0  0  0  0  0
   20.6727   -4.9015  -14.7520 N   0  0  0  0  0  0  0  0  0  0  0  0
   21.2796   -3.5941  -14.9697 C   0  0  0  0  0  0  0  0  0  0  0  0
   20.2530   -2.5619  -14.7348 C   0  0  0  0  0  0  0  0  0  0  0  0
   18.9552   -2.9611  -14.4980 O   0  0  0  0  0  0  0  0  0  0  0  0
   20.5262   -1.3449  -14.7448 O   0  0  0  0  0  0  0  0  0  0  0  0
  2  1  1  0
  3  2  1  0
  4  3  1  0
  4  5  1  0
  5  6  1  1
  7  5  1  0
  7  8  2  0
  9  7  1  0
 10  9  1  0
 10 11  1  1
 10 13  1  0
 11 12  1  0
 13 15  1  0
 13 14  2  0
 15 16  1  0
 16 17  1  0
 17 19  2  0
 17 18  1  0
M  END
$$$$
