MCG.pdb
     RDKit          3D

 19 18  0  0  1  0  0  0  0  0999 V2000
   20.3890  -16.4494  -20.6256 C   0  0  0  0  0  0  0  0  0  0  0  0
   22.0036  -15.6602  -20.9646 S   0  0  0  0  0  0  0  0  0  0  0  0
   21.8037  -13.8550  -20.8633 C   0  0  0  0  0  0  0  0  0  0  0  0
   22.2469  -13.3556  -19.5318 C   0  0  0  0  0  0  0  0  0  0  0  0
   23.7376  -13.0310  -19.4577 C   0  0  2  0  0  0  0  0  0  0  0  0
   24.3604  -14.3623  -19.2549 N   0  0  0  0  0  0  0  0  0  0  0  0
   24.0305  -12.2246  -18.2498 C   0  0  0  0  0  0  0  0  0  0  0  0
   24.1209  -12.7737  -17.1108 O   0  0  0  0  0  0  0  0  0  0  0  0
   24.2357  -10.8127  -18.2384 N   0  0  0  0  0  0  0  0  0  0  0  0
   24.6105  -10.1063  -17.0502 C   0  0  1  0  0  0  0  0  0  0  0  0
   26.1373   -9.8857  -17.1686 C   0  0  0  0  0  0  0  0  0  0  0  0
   26.7717   -9.0450  -15.7099 S   0  0  0  0  0  0  0  0  0  0  0  0
   24.0230   -8.7919  -16.8533 C   0  0  0  0  0  0  0  0  0  0  0  0
   24.2118   -7.9364  -17.7721 O   0  0  0  0  0  0  0  0  0  0  0  0
   23.2565   -8.3565  -15.7430 N   0  0  0  0  0  0  0  0  0  0  0  0
   22.7921   -6.9804  -15.6169 C   0  0  0  0  0  0  0  0  0  0  0  0
   21.9517   -6.8839  -14.4091 C   0  0  0  0  0  0  0  0  0  0  0  0
   21.4902   -5.6444  -14.0212 O   0  0  0  0  0  0  0  0  0  0  0  0
   21.6493   -7.8878  -13.7335 O   0  0  0  0  0  0  0  0  0  0  0  0
  2  1  1  0
  3  2  1  0
  4  3  1  0
  4  5  1  0
  5  6  1  1
  7  5  1  0
  7  8  2  0
  9  7  1  0
 10  9  1  0
 10 11  1  6
 10 13  1  0
 11 12  1  0
 13 15  1  0
 13 14  2  0
 15 16  1  0
 16 17  1  0
 17 19  2  0
 17 18  1  0
M  END
$$$$
