MCG.pdb
     RDKit          3D

 19 18  0  0  1  0  0  0  0  0999 V2000
   43.1016  -15.3643  -10.7679 C   0  0  0  0  0  0  0  0  0  0  0  0
   42.1613  -13.7961  -10.7355 S   0  0  0  0  0  0  0  0  0  0  0  0
   41.0309  -13.8227   -9.3106 C   0  0  0  0  0  0  0  0  0  0  0  0
   40.1603  -12.6141   -9.3136 C   0  0  0  0  0  0  0  0  0  0  0  0
   40.9237  -11.3021   -9.4842 C   0  0  2  0  0  0  0  0  0  0  0  0
   41.6582  -11.1729   -8.2016 N   0  0  0  0  0  0  0  0  0  0  0  0
   39.9800  -10.1626   -9.5625 C   0  0  0  0  0  0  0  0  0  0  0  0
   39.1681  -10.0596  -10.5306 O   0  0  0  0  0  0  0  0  0  0  0  0
   39.8849   -9.1113   -8.6026 N   0  0  0  0  0  0  0  0  0  0  0  0
   39.0203   -7.9848   -8.7888 C   0  0  1  0  0  0  0  0  0  0  0  0
   39.0717   -7.2034   -7.4543 C   0  0  0  0  0  0  0  0  0  0  0  0
   37.7812   -5.9507   -7.4027 S   0  0  0  0  0  0  0  0  0  0  0  0
   39.3869   -7.0389   -9.8292 C   0  0  0  0  0  0  0  0  0  0  0  0
   40.6174   -6.7412   -9.9252 O   0  0  0  0  0  0  0  0  0  0  0  0
   38.5182   -6.4087  -10.7554 N   0  0  0  0  0  0  0  0  0  0  0  0
   39.0005   -5.4361  -11.7283 C   0  0  0  0  0  0  0  0  0  0  0  0
   37.8595   -5.0049  -12.5570 C   0  0  0  0  0  0  0  0  0  0  0  0
   36.9057   -4.1842  -11.9943 O   0  0  0  0  0  0  0  0  0  0  0  0
   37.7354   -5.3608  -13.7459 O   0  0  0  0  0  0  0  0  0  0  0  0
  2  1  1  0
  3  2  1  0
  4  3  1  0
  4  5  1  0
  5  6  1  1
  7  5  1  0
  7  8  2  0
  9  7  1  0
 10  9  1  0
 10 11  1  1
 10 13  1  0
 11 12  1  0
 13 15  1  0
 13 14  2  0
 15 16  1  0
 16 17  1  0
 17 19  2  0
 17 18  1  0
M  END
$$$$
