MCG.pdb
     RDKit          3D

 19 18  0  0  1  0  0  0  0  0999 V2000
   23.4289  -12.9112  -20.7290 C   0  0  0  0  0  0  0  0  0  0  0  0
   22.4173  -14.3453  -20.2145 S   0  0  0  0  0  0  0  0  0  0  0  0
   21.2814  -13.8155  -18.8961 C   0  0  0  0  0  0  0  0  0  0  0  0
   21.4062  -12.3504  -18.6586 C   0  0  0  0  0  0  0  0  0  0  0  0
   21.5657  -11.9735  -17.1869 C   0  0  2  0  0  0  0  0  0  0  0  0
   20.5344  -12.8023  -16.5155 N   0  0  0  0  0  0  0  0  0  0  0  0
   21.1918  -10.5558  -16.9740 C   0  0  0  0  0  0  0  0  0  0  0  0
   21.8866   -9.6208  -17.4740 O   0  0  0  0  0  0  0  0  0  0  0  0
   20.0631  -10.1110  -16.2232 N   0  0  0  0  0  0  0  0  0  0  0  0
   19.7684   -8.7213  -16.0406 C   0  0  1  0  0  0  0  0  0  0  0  0
   18.2344   -8.6487  -15.8520 C   0  0  0  0  0  0  0  0  0  0  0  0
   17.7012   -6.9431  -15.6432 S   0  0  0  0  0  0  0  0  0  0  0  0
   20.3529   -8.0719  -14.8795 C   0  0  0  0  0  0  0  0  0  0  0  0
   20.3200   -8.7156  -13.7857 O   0  0  0  0  0  0  0  0  0  0  0  0
   20.9608   -6.7921  -14.8323 N   0  0  0  0  0  0  0  0  0  0  0  0
   21.5975   -6.2833  -13.6236 C   0  0  0  0  0  0  0  0  0  0  0  0
   22.1455   -4.9460  -13.9164 C   0  0  0  0  0  0  0  0  0  0  0  0
   22.8018   -4.2656  -12.9133 O   0  0  0  0  0  0  0  0  0  0  0  0
   22.0316   -4.4176  -15.0405 O   0  0  0  0  0  0  0  0  0  0  0  0
  2  1  1  0
  3  2  1  0
  4  3  1  0
  4  5  1  0
  5  6  1  1
  7  5  1  0
  7  8  2  0
  9  7  1  0
 10  9  1  0
 10 11  1  1
 10 13  1  0
 11 12  1  0
 13 15  1  0
 13 14  2  0
 15 16  1  0
 16 17  1  0
 17 19  2  0
 17 18  1  0
M  END
$$$$
