MCG.pdb
     RDKit          3D

 19 18  0  0  1  0  0  0  0  0999 V2000
   12.5567   -6.8361  -11.9919 C   0  0  0  0  0  0  0  0  0  0  0  0
   12.7330   -8.1749  -10.7585 S   0  0  0  0  0  0  0  0  0  0  0  0
   13.7102   -9.5213  -11.4943 C   0  0  0  0  0  0  0  0  0  0  0  0
   15.1242   -9.0944  -11.6858 C   0  0  0  0  0  0  0  0  0  0  0  0
   16.0028  -10.1474  -12.3584 C   0  0  2  0  0  0  0  0  0  0  0  0
   16.2008  -11.1530  -11.2856 N   0  0  0  0  0  0  0  0  0  0  0  0
   17.3347   -9.5815  -12.6761 C   0  0  0  0  0  0  0  0  0  0  0  0
   18.2181   -9.4594  -11.7752 O   0  0  0  0  0  0  0  0  0  0  0  0
   17.7483   -9.1375  -13.9674 N   0  0  0  0  0  0  0  0  0  0  0  0
   19.0775   -8.6694  -14.2231 C   0  0  1  0  0  0  0  0  0  0  0  0
   19.4348   -9.1989  -15.6324 C   0  0  0  0  0  0  0  0  0  0  0  0
   19.6815  -10.9808  -15.5966 S   0  0  0  0  0  0  0  0  0  0  0  0
   19.2710   -7.2299  -14.2675 C   0  0  0  0  0  0  0  0  0  0  0  0
   18.3741   -6.5490  -14.8539 O   0  0  0  0  0  0  0  0  0  0  0  0
   20.3559   -6.4967  -13.7243 N   0  0  0  0  0  0  0  0  0  0  0  0
   20.4220   -5.0425  -13.8030 C   0  0  0  0  0  0  0  0  0  0  0  0
   21.6012   -4.5904  -13.0418 C   0  0  0  0  0  0  0  0  0  0  0  0
   21.9294   -3.2519  -13.0632 O   0  0  0  0  0  0  0  0  0  0  0  0
   22.3051   -5.3821  -12.3834 O   0  0  0  0  0  0  0  0  0  0  0  0
  2  1  1  0
  3  2  1  0
  4  3  1  0
  4  5  1  0
  5  6  1  1
  7  5  1  0
  7  8  2  0
  9  7  1  0
 10  9  1  0
 10 11  1  6
 10 13  1  0
 11 12  1  0
 13 15  1  0
 13 14  2  0
 15 16  1  0
 16 17  1  0
 17 19  2  0
 17 18  1  0
M  END
$$$$
