DYF.pdb
     RDKit          3D

 32 33  0  0  1  0  0  0  0  0999 V2000
  -45.2603  -20.5163   -1.9321 N   0  0  0  0  0  0  0  0  0  0  0  0
  -43.9260  -20.1660   -2.3506 C   0  0  1  0  0  0  0  0  0  0  0  0
  -43.7799  -19.8899   -3.8096 C   0  0  0  0  0  0  0  0  0  0  0  0
  -42.8462  -20.8616   -4.4400 C   0  0  0  0  0  0  0  0  0  0  0  0
  -41.6543  -20.8663   -4.0330 O   0  0  0  0  0  0  0  0  0  0  0  0
  -43.4276  -19.0643   -1.4726 C   0  0  0  0  0  0  0  0  0  0  0  0
  -42.4777  -19.2264   -0.6500 O   0  0  0  0  0  0  0  0  0  0  0  0
  -43.2648  -21.7048   -5.4137 O   0  0  0  0  0  0  0  0  0  0  0  0
  -44.7694  -11.9207   -5.6169 O   0  0  0  0  0  0  0  0  0  0  0  0
  -44.6397  -12.7806   -4.5062 C   0  0  0  0  0  0  0  0  0  0  0  0
  -45.4716  -12.6678   -3.4180 C   0  0  0  0  0  0  0  0  0  0  0  0
  -45.3382  -13.5091   -2.3387 C   0  0  0  0  0  0  0  0  0  0  0  0
  -44.3881  -14.4979   -2.2719 C   0  0  0  0  0  0  0  0  0  0  0  0
  -44.1726  -15.4154   -1.1453 C   0  0  0  0  0  0  0  0  0  0  0  0
  -43.1957  -16.5431   -1.4394 C   0  0  2  0  0  0  0  0  0  0  0  0
  -44.0032  -17.7623   -1.5187 N   0  0  0  0  0  0  0  0  0  0  0  0
  -42.1306  -16.6266   -0.4286 C   0  0  0  0  0  0  0  0  0  0  0  0
  -41.2186  -15.7319   -0.4985 O   0  0  0  0  0  0  0  0  0  0  0  0
  -43.5481  -14.6005   -3.3908 C   0  0  0  0  0  0  0  0  0  0  0  0
  -43.6699  -13.7609   -4.4839 C   0  0  0  0  0  0  0  0  0  0  0  0
  -42.0463  -17.6044    0.5916 N   0  0  0  0  0  0  0  0  0  0  0  0
  -41.1131  -18.7262    0.5712 C   0  0  1  0  0  0  0  0  0  0  0  0
  -41.8343  -20.0358    0.4883 C   0  0  0  0  0  0  0  0  0  0  0  0
  -43.2457  -19.8829    0.8333 C   0  0  0  0  0  0  0  0  0  0  0  0
  -44.1564  -19.3427   -0.0716 C   0  0  0  0  0  0  0  0  0  0  0  0
  -45.5006  -19.2138    0.2353 C   0  0  0  0  0  0  0  0  0  0  0  0
  -45.9749  -19.6249    1.4670 C   0  0  0  0  0  0  0  0  0  0  0  0
  -45.0920  -20.1518    2.3525 C   0  0  0  0  0  0  0  0  0  0  0  0
  -43.7274  -20.2895    2.0553 C   0  0  0  0  0  0  0  0  0  0  0  0
  -40.2352  -18.5713   -0.5925 C   0  0  0  0  0  0  0  0  0  0  0  0
  -39.2624  -19.5164   -0.8486 O   0  0  0  0  0  0  0  0  0  0  0  0
  -40.3409  -17.6013   -1.3688 O   0  0  0  0  0  0  0  0  0  0  0  0
  2  1  1  6
  2  3  1  0
  3  4  1  0
  4  8  1  0
  5  4  2  0
  6  2  1  0
  6  7  2  0
  9 10  1  0
 10 20  2  0
 11 12  2  0
 11 10  1  0
 12 13  1  0
 13 14  1  0
 13 19  2  0
 15 16  1  0
 15 14  1  1
 16  6  1  0
 17 15  1  0
 18 17  2  0
 20 19  1  0
 21 17  1  0
 22 21  1  0
 23 24  1  0
 22 23  1  6
 24 25  2  0
 25 26  1  0
 27 26  2  0
 28 27  1  0
 29 28  2  0
 29 24  1  0
 30 22  1  0
 30 31  1  0
 32 30  2  0
M  END
$$$$
