DYF.pdb
     RDKit          3D

 32 33  0  0  1  0  0  0  0  0999 V2000
   29.6480  -22.6990  -18.0966 N   0  0  0  0  0  0  0  0  0  0  0  0
   28.6564  -21.6855  -17.8367 C   0  0  1  0  0  0  0  0  0  0  0  0
   27.7728  -21.3627  -18.9949 C   0  0  0  0  0  0  0  0  0  0  0  0
   28.5489  -20.7153  -20.0867 C   0  0  0  0  0  0  0  0  0  0  0  0
   29.1354  -19.6337  -19.8170 O   0  0  0  0  0  0  0  0  0  0  0  0
   27.9146  -22.0557  -16.5935 C   0  0  0  0  0  0  0  0  0  0  0  0
   27.5130  -23.2357  -16.3664 O   0  0  0  0  0  0  0  0  0  0  0  0
   28.6181  -21.2692  -21.3208 O   0  0  0  0  0  0  0  0  0  0  0  0
   24.1351  -20.5472   -8.5512 O   0  0  0  0  0  0  0  0  0  0  0  0
   24.9046  -20.5247   -9.7331 C   0  0  0  0  0  0  0  0  0  0  0  0
   26.0025  -21.3380   -9.8831 C   0  0  0  0  0  0  0  0  0  0  0  0
   26.7481  -21.3096  -11.0380 C   0  0  0  0  0  0  0  0  0  0  0  0
   26.4570  -20.4872  -12.0981 C   0  0  0  0  0  0  0  0  0  0  0  0
   27.2199  -20.3866  -13.3493 C   0  0  0  0  0  0  0  0  0  0  0  0
   26.8180  -21.4031  -14.4065 C   0  0  2  0  0  0  0  0  0  0  0  0
   27.6199  -21.0880  -15.5908 N   0  0  0  0  0  0  0  0  0  0  0  0
   25.3715  -21.3792  -14.6716 C   0  0  0  0  0  0  0  0  0  0  0  0
   24.9263  -20.3364  -15.2645 O   0  0  0  0  0  0  0  0  0  0  0  0
   25.3333  -19.6646  -11.9296 C   0  0  0  0  0  0  0  0  0  0  0  0
   24.5735  -19.6818  -10.7732 C   0  0  0  0  0  0  0  0  0  0  0  0
   24.4596  -22.4048  -14.3245 N   0  0  0  0  0  0  0  0  0  0  0  0
   23.0132  -22.3002  -14.4887 C   0  0  1  0  0  0  0  0  0  0  0  0
   22.3784  -23.6504  -14.6160 C   0  0  0  0  0  0  0  0  0  0  0  0
   20.9320  -23.5384  -14.7894 C   0  0  0  0  0  0  0  0  0  0  0  0
   20.3796  -23.1114  -15.9946 C   0  0  0  0  0  0  0  0  0  0  0  0
   19.0099  -23.0230  -16.1785 C   0  0  0  0  0  0  0  0  0  0  0  0
   18.1475  -23.3617  -15.1525 C   0  0  0  0  0  0  0  0  0  0  0  0
   18.6804  -23.7782  -13.9761 C   0  0  0  0  0  0  0  0  0  0  0  0
   20.0660  -23.8737  -13.7754 C   0  0  0  0  0  0  0  0  0  0  0  0
   22.4679  -21.6065  -13.3181 C   0  0  0  0  0  0  0  0  0  0  0  0
   21.5491  -20.5907  -13.4891 O   0  0  0  0  0  0  0  0  0  0  0  0
   22.8109  -21.9089  -12.1581 O   0  0  0  0  0  0  0  0  0  0  0  0
  2  1  1  6
  2  3  1  0
  3  4  1  0
  4  8  1  0
  5  4  2  0
  6  2  1  0
  6  7  2  0
  9 10  1  0
 10 20  2  0
 11 12  2  0
 11 10  1  0
 12 13  1  0
 13 14  1  0
 13 19  2  0
 15 16  1  0
 15 14  1  1
 16  6  1  0
 17 15  1  0
 18 17  2  0
 20 19  1  0
 21 17  1  0
 22 21  1  0
 23 24  1  0
 22 23  1  1
 24 25  2  0
 25 26  1  0
 27 26  2  0
 28 27  1  0
 29 28  2  0
 29 24  1  0
 30 22  1  0
 30 31  1  0
 32 30  2  0
M  END
$$$$
