DYF.pdb
     RDKit          3D

 32 33  0  0  1  0  0  0  0  0999 V2000
   28.2196  -22.8024  -17.6269 N   0  0  0  0  0  0  0  0  0  0  0  0
   27.6416  -21.5704  -17.1513 C   0  0  1  0  0  0  0  0  0  0  0  0
   26.6992  -20.9128  -18.1030 C   0  0  0  0  0  0  0  0  0  0  0  0
   27.4425  -20.1230  -19.1214 C   0  0  0  0  0  0  0  0  0  0  0  0
   27.8623  -18.9860  -18.7786 O   0  0  0  0  0  0  0  0  0  0  0  0
   27.0634  -21.8106  -15.7946 C   0  0  0  0  0  0  0  0  0  0  0  0
   26.3507  -22.8237  -15.5281 O   0  0  0  0  0  0  0  0  0  0  0  0
   27.6559  -20.6101  -20.3670 O   0  0  0  0  0  0  0  0  0  0  0  0
   25.6743  -20.2777   -7.0401 O   0  0  0  0  0  0  0  0  0  0  0  0
   26.1459  -20.3103   -8.3691 C   0  0  0  0  0  0  0  0  0  0  0  0
   27.0023  -21.2968   -8.7964 C   0  0  0  0  0  0  0  0  0  0  0  0
   27.4584  -21.3212  -10.0932 C   0  0  0  0  0  0  0  0  0  0  0  0
   27.1001  -20.3852  -11.0315 C   0  0  0  0  0  0  0  0  0  0  0  0
   27.5647  -20.3349  -12.4241 C   0  0  0  0  0  0  0  0  0  0  0  0
   26.6650  -21.0675  -13.4070 C   0  0  2  0  0  0  0  0  0  0  0  0
   27.2884  -20.9012  -14.7217 N   0  0  0  0  0  0  0  0  0  0  0  0
   25.2814  -20.5706  -13.3626 C   0  0  0  0  0  0  0  0  0  0  0  0
   25.0950  -19.3869  -13.8111 O   0  0  0  0  0  0  0  0  0  0  0  0
   26.2249  -19.3861  -10.5799 C   0  0  0  0  0  0  0  0  0  0  0  0
   25.7579  -19.3483   -9.2779 C   0  0  0  0  0  0  0  0  0  0  0  0
   24.1684  -21.2935  -12.8697 N   0  0  0  0  0  0  0  0  0  0  0  0
   22.8146  -20.7539  -12.7925 C   0  0  1  0  0  0  0  0  0  0  0  0
   21.9080  -21.4073  -13.7891 C   0  0  0  0  0  0  0  0  0  0  0  0
   22.0991  -20.8443  -15.1237 C   0  0  0  0  0  0  0  0  0  0  0  0
   21.4740  -19.6593  -15.5043 C   0  0  0  0  0  0  0  0  0  0  0  0
   21.6651  -19.1038  -16.7584 C   0  0  0  0  0  0  0  0  0  0  0  0
   22.4938  -19.7243  -17.6744 C   0  0  0  0  0  0  0  0  0  0  0  0
   23.1053  -20.8792  -17.3089 C   0  0  0  0  0  0  0  0  0  0  0  0
   22.9219  -21.4534  -16.0416 C   0  0  0  0  0  0  0  0  0  0  0  0
   22.3060  -20.9838  -11.4370 C   0  0  0  0  0  0  0  0  0  0  0  0
   21.0743  -20.4793  -11.0717 O   0  0  0  0  0  0  0  0  0  0  0  0
   22.9581  -21.6295  -10.5929 O   0  0  0  0  0  0  0  0  0  0  0  0
  2  1  1  6
  2  3  1  0
  3  4  1  0
  4  8  1  0
  5  4  2  0
  6  2  1  0
  6  7  2  0
  9 10  1  0
 10 20  2  0
 11 12  2  0
 11 10  1  0
 12 13  1  0
 13 14  1  0
 13 19  2  0
 15 16  1  0
 15 14  1  1
 16  6  1  0
 17 15  1  0
 18 17  2  0
 20 19  1  0
 21 17  1  0
 22 21  1  0
 23 24  1  0
 22 23  1  6
 24 25  2  0
 25 26  1  0
 27 26  2  0
 28 27  1  0
 29 28  2  0
 29 24  1  0
 30 22  1  0
 30 31  1  0
 32 30  2  0
M  END
$$$$
