DYF.pdb
     RDKit          3D

 32 33  0  0  1  0  0  0  0  0999 V2000
   26.7069  -22.6348  -17.7129 N   0  0  0  0  0  0  0  0  0  0  0  0
   25.6777  -22.2957  -16.7622 C   0  0  1  0  0  0  0  0  0  0  0  0
   24.5913  -23.3096  -16.6276 C   0  0  0  0  0  0  0  0  0  0  0  0
   23.5060  -23.0545  -17.6127 C   0  0  0  0  0  0  0  0  0  0  0  0
   23.7901  -23.1833  -18.8330 O   0  0  0  0  0  0  0  0  0  0  0  0
   26.3294  -21.9305  -15.4680 C   0  0  0  0  0  0  0  0  0  0  0  0
   27.3485  -22.5384  -15.0238 O   0  0  0  0  0  0  0  0  0  0  0  0
   22.2636  -22.6965  -17.2094 O   0  0  0  0  0  0  0  0  0  0  0  0
   29.9933  -17.5076  -17.9115 O   0  0  0  0  0  0  0  0  0  0  0  0
   29.2026  -17.8807  -16.8046 C   0  0  0  0  0  0  0  0  0  0  0  0
   29.7366  -18.5899  -15.7553 C   0  0  0  0  0  0  0  0  0  0  0  0
   28.9591  -18.9507  -14.6802 C   0  0  0  0  0  0  0  0  0  0  0  0
   27.6264  -18.6364  -14.5799 C   0  0  0  0  0  0  0  0  0  0  0  0
   26.7311  -19.0076  -13.4762 C   0  0  0  0  0  0  0  0  0  0  0  0
   26.4427  -20.4978  -13.3834 C   0  0  2  0  0  0  0  0  0  0  0  0
   25.8306  -20.8679  -14.6613 N   0  0  0  0  0  0  0  0  0  0  0  0
   25.5945  -20.8234  -12.2267 C   0  0  0  0  0  0  0  0  0  0  0  0
   24.3348  -20.6736  -12.3941 O   0  0  0  0  0  0  0  0  0  0  0  0
   27.0971  -17.9117  -15.6582 C   0  0  0  0  0  0  0  0  0  0  0  0
   27.8670  -17.5420  -16.7470 C   0  0  0  0  0  0  0  0  0  0  0  0
   26.0636  -21.2799  -10.9715 N   0  0  0  0  0  0  0  0  0  0  0  0
   25.1925  -21.6521   -9.8614 C   0  0  1  0  0  0  0  0  0  0  0  0
   25.9835  -22.1130   -8.6765 C   0  0  0  0  0  0  0  0  0  0  0  0
   26.7983  -21.0290   -8.1329 C   0  0  0  0  0  0  0  0  0  0  0  0
   28.1366  -20.8821   -8.4898 C   0  0  0  0  0  0  0  0  0  0  0  0
   28.9129  -19.8457   -7.9990 C   0  0  0  0  0  0  0  0  0  0  0  0
   28.3671  -18.9198   -7.1296 C   0  0  0  0  0  0  0  0  0  0  0  0
   27.0637  -19.0583   -6.7784 C   0  0  0  0  0  0  0  0  0  0  0  0
   26.2646  -20.1027   -7.2683 C   0  0  0  0  0  0  0  0  0  0  0  0
   24.3909  -20.4807   -9.4947 C   0  0  0  0  0  0  0  0  0  0  0  0
   24.7900  -19.2226   -9.8988 O   0  0  0  0  0  0  0  0  0  0  0  0
   23.3465  -20.5856   -8.8219 O   0  0  0  0  0  0  0  0  0  0  0  0
  2  1  1  6
  2  3  1  0
  3  4  1  0
  4  8  1  0
  5  4  2  0
  6  2  1  0
  6  7  2  0
  9 10  1  0
 10 20  2  0
 11 12  2  0
 11 10  1  0
 12 13  1  0
 13 14  1  0
 13 19  2  0
 15 16  1  0
 15 14  1  6
 16  6  1  0
 17 15  1  0
 18 17  2  0
 20 19  1  0
 21 17  1  0
 22 21  1  0
 23 24  1  0
 22 23  1  1
 24 25  2  0
 25 26  1  0
 27 26  2  0
 28 27  1  0
 29 28  2  0
 29 24  1  0
 30 22  1  0
 30 31  1  0
 32 30  2  0
M  END
$$$$
