DYF.pdb
     RDKit          3D

 32 33  0  0  1  0  0  0  0  0999 V2000
   27.1988  -20.5914  -15.3364 N   0  0  0  0  0  0  0  0  0  0  0  0
   27.6734  -19.4565  -14.5849 C   0  0  1  0  0  0  0  0  0  0  0  0
   27.6408  -18.1597  -15.3222 C   0  0  0  0  0  0  0  0  0  0  0  0
   28.4197  -18.2513  -16.5865 C   0  0  0  0  0  0  0  0  0  0  0  0
   28.1440  -17.4259  -17.4971 O   0  0  0  0  0  0  0  0  0  0  0  0
   26.9601  -19.4252  -13.2722 C   0  0  0  0  0  0  0  0  0  0  0  0
   26.7996  -18.3571  -12.6101 O   0  0  0  0  0  0  0  0  0  0  0  0
   29.3849  -19.1876  -16.7485 O   0  0  0  0  0  0  0  0  0  0  0  0
   20.0172  -19.5660  -14.6633 O   0  0  0  0  0  0  0  0  0  0  0  0
   21.1296  -20.0654  -13.9541 C   0  0  0  0  0  0  0  0  0  0  0  0
   22.1976  -20.6288  -14.6105 C   0  0  0  0  0  0  0  0  0  0  0  0
   23.2778  -21.1143  -13.9120 C   0  0  0  0  0  0  0  0  0  0  0  0
   23.3653  -21.0722  -12.5426 C   0  0  0  0  0  0  0  0  0  0  0  0
   24.4740  -21.5909  -11.7305 C   0  0  0  0  0  0  0  0  0  0  0  0
   25.5900  -20.5870  -11.4877 C   0  0  2  0  0  0  0  0  0  0  0  0
   26.4190  -20.6095  -12.6948 N   0  0  0  0  0  0  0  0  0  0  0  0
   26.3495  -20.8928  -10.2659 C   0  0  0  0  0  0  0  0  0  0  0  0
   27.0826  -21.9407  -10.3077 O   0  0  0  0  0  0  0  0  0  0  0  0
   22.2679  -20.4933  -11.8879 C   0  0  0  0  0  0  0  0  0  0  0  0
   21.1737  -20.0009  -12.5772 C   0  0  0  0  0  0  0  0  0  0  0  0
   26.3262  -20.1271   -9.0755 N   0  0  0  0  0  0  0  0  0  0  0  0
   27.1076  -20.4461   -7.8849 C   0  0  1  0  0  0  0  0  0  0  0  0
   27.8317  -19.2420   -7.3674 C   0  0  0  0  0  0  0  0  0  0  0  0
   28.4680  -19.5218   -6.0822 C   0  0  0  0  0  0  0  0  0  0  0  0
   27.9833  -18.9674   -4.9000 C   0  0  0  0  0  0  0  0  0  0  0  0
   28.5637  -19.2431   -3.6733 C   0  0  0  0  0  0  0  0  0  0  0  0
   29.6550  -20.0880   -3.5949 C   0  0  0  0  0  0  0  0  0  0  0  0
   30.1315  -20.6308   -4.7437 C   0  0  0  0  0  0  0  0  0  0  0  0
   29.5533  -20.3614   -5.9936 C   0  0  0  0  0  0  0  0  0  0  0  0
   26.1923  -20.9515   -6.8575 C   0  0  0  0  0  0  0  0  0  0  0  0
   24.8304  -20.7875   -7.0113 O   0  0  0  0  0  0  0  0  0  0  0  0
   26.6095  -21.5329   -5.8365 O   0  0  0  0  0  0  0  0  0  0  0  0
  2  1  1  6
  2  3  1  0
  3  4  1  0
  4  8  1  0
  5  4  2  0
  6  2  1  0
  6  7  2  0
  9 10  1  0
 10 20  2  0
 11 12  2  0
 11 10  1  0
 12 13  1  0
 13 14  1  0
 13 19  2  0
 15 16  1  0
 15 14  1  6
 16  6  1  0
 17 15  1  0
 18 17  2  0
 20 19  1  0
 21 17  1  0
 22 21  1  0
 23 24  1  0
 22 23  1  1
 24 25  2  0
 25 26  1  0
 27 26  2  0
 28 27  1  0
 29 28  2  0
 29 24  1  0
 30 22  1  0
 30 31  1  0
 32 30  2  0
M  END
$$$$
