DYF.pdb
     RDKit          3D

 32 33  0  0  1  0  0  0  0  0999 V2000
   20.2666  -10.6292  -16.0765 N   0  0  0  0  0  0  0  0  0  0  0  0
   20.0995   -9.4329  -16.8633 C   0  0  1  0  0  0  0  0  0  0  0  0
   18.6832   -9.0812  -17.1744 C   0  0  0  0  0  0  0  0  0  0  0  0
   18.0251  -10.1714  -17.9436 C   0  0  0  0  0  0  0  0  0  0  0  0
   18.6975  -10.7250  -18.8535 O   0  0  0  0  0  0  0  0  0  0  0  0
   20.8700   -8.3282  -16.2161 C   0  0  0  0  0  0  0  0  0  0  0  0
   20.8321   -8.1122  -14.9683 O   0  0  0  0  0  0  0  0  0  0  0  0
   16.7528  -10.5496  -17.6742 O   0  0  0  0  0  0  0  0  0  0  0  0
   26.1636  -11.6125  -15.4349 O   0  0  0  0  0  0  0  0  0  0  0  0
   25.5925  -10.3725  -15.7902 C   0  0  0  0  0  0  0  0  0  0  0  0
   24.9536  -10.2024  -16.9951 C   0  0  0  0  0  0  0  0  0  0  0  0
   24.4003   -8.9904  -17.3346 C   0  0  0  0  0  0  0  0  0  0  0  0
   24.4450   -7.8900  -16.5148 C   0  0  0  0  0  0  0  0  0  0  0  0
   23.8982   -6.5614  -16.8201 C   0  0  0  0  0  0  0  0  0  0  0  0
   22.4588   -6.3628  -16.3713 C   0  0  2  0  0  0  0  0  0  0  0  0
   21.6951   -7.4540  -16.9801 N   0  0  0  0  0  0  0  0  0  0  0  0
   21.9470   -5.0330  -16.7356 C   0  0  0  0  0  0  0  0  0  0  0  0
   21.7350   -4.8347  -17.9817 O   0  0  0  0  0  0  0  0  0  0  0  0
   25.0995   -8.0805  -15.2886 C   0  0  0  0  0  0  0  0  0  0  0  0
   25.6614   -9.2941  -14.9334 C   0  0  0  0  0  0  0  0  0  0  0  0
   21.6793   -3.9824  -15.8253 N   0  0  0  0  0  0  0  0  0  0  0  0
   21.0917   -2.7022  -16.2070 C   0  0  1  0  0  0  0  0  0  0  0  0
   19.6022   -2.7175  -16.0553 C   0  0  0  0  0  0  0  0  0  0  0  0
   19.0253   -1.4169  -16.3876 C   0  0  0  0  0  0  0  0  0  0  0  0
   18.6178   -0.5316  -15.3926 C   0  0  0  0  0  0  0  0  0  0  0  0
   18.0907    0.7128  -15.6946 C   0  0  0  0  0  0  0  0  0  0  0  0
   17.9552    1.1092  -17.0120 C   0  0  0  0  0  0  0  0  0  0  0  0
   18.3505    0.2506  -17.9855 C   0  0  0  0  0  0  0  0  0  0  0  0
   18.8871   -1.0131  -17.6947 C   0  0  0  0  0  0  0  0  0  0  0  0
   21.6649   -1.6606  -15.3494 C   0  0  0  0  0  0  0  0  0  0  0  0
   21.8493   -0.3866  -15.8473 O   0  0  0  0  0  0  0  0  0  0  0  0
   21.9946   -1.8912  -14.1692 O   0  0  0  0  0  0  0  0  0  0  0  0
  2  1  1  1
  2  3  1  0
  3  4  1  0
  4  8  1  0
  5  4  2  0
  6  2  1  0
  6  7  2  0
  9 10  1  0
 10 20  2  0
 11 12  2  0
 11 10  1  0
 12 13  1  0
 13 14  1  0
 13 19  2  0
 15 16  1  0
 15 14  1  6
 16  6  1  0
 17 15  1  0
 18 17  2  0
 20 19  1  0
 21 17  1  0
 22 21  1  0
 23 24  1  0
 22 23  1  1
 24 25  2  0
 25 26  1  0
 27 26  2  0
 28 27  1  0
 29 28  2  0
 29 24  1  0
 30 22  1  0
 30 31  1  0
 32 30  2  0
M  END
$$$$
