DYF.pdb
     RDKit          3D

 32 33  0  0  1  0  0  0  0  0999 V2000
   24.0800  -12.5752  -18.7130 N   0  0  0  0  0  0  0  0  0  0  0  0
   23.1688  -11.5158  -19.0673 C   0  0  1  0  0  0  0  0  0  0  0  0
   21.9039  -11.9690  -19.7160 C   0  0  0  0  0  0  0  0  0  0  0  0
   22.1559  -12.4084  -21.1149 C   0  0  0  0  0  0  0  0  0  0  0  0
   23.1745  -11.9444  -21.6926 O   0  0  0  0  0  0  0  0  0  0  0  0
   22.9581  -10.6506  -17.8673 C   0  0  0  0  0  0  0  0  0  0  0  0
   22.3051  -11.0399  -16.8537 O   0  0  0  0  0  0  0  0  0  0  0  0
   21.3201  -13.2719  -21.7395 O   0  0  0  0  0  0  0  0  0  0  0  0
   28.8759  -11.6662  -15.6563 O   0  0  0  0  0  0  0  0  0  0  0  0
   27.8373  -10.7245  -15.8123 C   0  0  0  0  0  0  0  0  0  0  0  0
   26.8864  -10.5456  -14.8362 C   0  0  0  0  0  0  0  0  0  0  0  0
   25.8765   -9.6263  -14.9961 C   0  0  0  0  0  0  0  0  0  0  0  0
   25.7483   -8.8406  -16.1146 C   0  0  0  0  0  0  0  0  0  0  0  0
   24.6855   -7.8576  -16.3636 C   0  0  0  0  0  0  0  0  0  0  0  0
   23.3200   -8.4717  -16.6293 C   0  0  2  0  0  0  0  0  0  0  0  0
   23.4882   -9.3301  -17.8038 N   0  0  0  0  0  0  0  0  0  0  0  0
   22.2817   -7.4465  -16.8134 C   0  0  0  0  0  0  0  0  0  0  0  0
   22.4283   -6.6734  -17.8224 O   0  0  0  0  0  0  0  0  0  0  0  0
   26.7270   -9.0346  -17.1007 C   0  0  0  0  0  0  0  0  0  0  0  0
   27.7490   -9.9561  -16.9540 C   0  0  0  0  0  0  0  0  0  0  0  0
   21.1585   -7.2599  -15.9722 N   0  0  0  0  0  0  0  0  0  0  0  0
   20.1206   -6.2611  -16.2067 C   0  0  1  0  0  0  0  0  0  0  0  0
   18.9684   -6.8385  -16.9690 C   0  0  0  0  0  0  0  0  0  0  0  0
   17.8980   -5.8571  -17.1296 C   0  0  0  0  0  0  0  0  0  0  0  0
   16.6832   -5.9973  -16.4629 C   0  0  0  0  0  0  0  0  0  0  0  0
   15.6696   -5.0622  -16.5892 C   0  0  0  0  0  0  0  0  0  0  0  0
   15.8449   -3.9515  -17.3934 C   0  0  0  0  0  0  0  0  0  0  0  0
   17.0265   -3.8100  -18.0453 C   0  0  0  0  0  0  0  0  0  0  0  0
   18.0628   -4.7488  -17.9263 C   0  0  0  0  0  0  0  0  0  0  0  0
   19.6556   -5.7689  -14.9065 C   0  0  0  0  0  0  0  0  0  0  0  0
   19.2688   -4.4509  -14.7703 O   0  0  0  0  0  0  0  0  0  0  0  0
   19.5967   -6.5122  -13.9072 O   0  0  0  0  0  0  0  0  0  0  0  0
  2  1  1  1
  2  3  1  0
  3  4  1  0
  4  8  1  0
  5  4  2  0
  6  2  1  0
  6  7  2  0
  9 10  1  0
 10 20  2  0
 11 12  2  0
 11 10  1  0
 12 13  1  0
 13 14  1  0
 13 19  2  0
 15 16  1  0
 15 14  1  6
 16  6  1  0
 17 15  1  0
 18 17  2  0
 20 19  1  0
 21 17  1  0
 22 21  1  0
 23 24  1  0
 22 23  1  1
 24 25  2  0
 25 26  1  0
 27 26  2  0
 28 27  1  0
 29 28  2  0
 29 24  1  0
 30 22  1  0
 30 31  1  0
 32 30  2  0
M  END
$$$$
