VFW.pdb
     RDKit          3D

 33 35  0  0  1  0  0  0  0  0999 V2000
   10.0750  -20.6766   18.7392 C   0  0  0  0  0  0  0  0  0  0  0  0
   10.0695  -19.4937   19.6382 C   0  0  2  0  0  0  0  0  0  0  0  0
    9.9379  -19.9832   21.0872 C   0  0  0  0  0  0  0  0  0  0  0  0
    8.9119  -18.5952   19.3795 C   0  0  2  0  0  0  0  0  0  0  0  0
    8.8469  -18.1766   18.0010 N   0  0  0  0  0  0  0  0  0  0  0  0
    9.0081  -17.3702   20.2277 C   0  0  0  0  0  0  0  0  0  0  0  0
    9.8516  -16.4643   19.9922 O   0  0  0  0  0  0  0  0  0  0  0  0
    8.1581  -17.1608   21.3413 N   0  0  0  0  0  0  0  0  0  0  0  0
    8.2259  -16.0149   22.2106 C   0  0  1  0  0  0  0  0  0  0  0  0
    7.0207  -15.8242   23.0584 C   0  0  0  0  0  0  0  0  0  0  0  0
    7.0938  -14.7309   24.0284 C   0  0  0  0  0  0  0  0  0  0  0  0
    6.8933  -14.9814   25.3703 C   0  0  0  0  0  0  0  0  0  0  0  0
    6.9641  -13.9406   26.3025 C   0  0  0  0  0  0  0  0  0  0  0  0
    7.2377  -12.6381   25.8892 C   0  0  0  0  0  0  0  0  0  0  0  0
    7.4372  -12.3930   24.5469 C   0  0  0  0  0  0  0  0  0  0  0  0
    7.3624  -13.4442   23.6339 C   0  0  0  0  0  0  0  0  0  0  0  0
    9.5125  -15.9781   22.9654 C   0  0  0  0  0  0  0  0  0  0  0  0
   10.1507  -14.9060   22.9659 O   0  0  0  0  0  0  0  0  0  0  0  0
   10.0005  -17.0914   23.6517 N   0  0  0  0  0  0  0  0  0  0  0  0
   11.2487  -17.1967   24.3740 C   0  0  1  0  0  0  0  0  0  0  0  0
   11.4610  -16.1132   25.3530 C   0  0  0  0  0  0  0  0  0  0  0  0
   10.6756  -16.3240   26.5902 C   0  0  0  0  0  0  0  0  0  0  0  0
   10.0857  -17.4813   27.0529 C   0  0  0  0  0  0  0  0  0  0  0  0
    9.4662  -17.1883   28.2035 N   0  0  0  0  0  0  0  0  0  0  0  0
    9.6212  -15.8952   28.5174 C   0  0  0  0  0  0  0  0  0  0  0  0
    9.1814  -15.1154   29.5843 C   0  0  0  0  0  0  0  0  0  0  0  0
    9.4878  -13.7785   29.6658 C   0  0  0  0  0  0  0  0  0  0  0  0
   10.2521  -13.2139   28.6542 C   0  0  0  0  0  0  0  0  0  0  0  0
   10.6793  -14.0023   27.6044 C   0  0  0  0  0  0  0  0  0  0  0  0
   10.3753  -15.3265   27.5245 C   0  0  0  0  0  0  0  0  0  0  0  0
   11.4540  -18.5242   25.0159 C   0  0  0  0  0  0  0  0  0  0  0  0
   12.6177  -18.9252   25.6499 O   0  0  0  0  0  0  0  0  0  0  0  0
   10.4889  -19.3356   24.9761 O   0  0  0  0  0  0  0  0  0  0  0  0
  2  3  1  1
  2  1  1  0
  4  2  1  0
  4  5  1  6
  6  4  1  0
  6  7  2  0
  8  6  1  0
  9 10  1  1
  9  8  1  0
 11 16  1  0
 11 10  1  0
 12 11  2  0
 13 14  2  0
 13 12  1  0
 14 15  1  0
 15 16  2  0
 17  9  1  0
 18 17  2  0
 19 17  1  0
 20 21  1  1
 20 19  1  0
 21 22  1  0
 22 30  1  0
 23 22  2  0
 23 24  1  0
 24 25  1  0
 25 26  1  0
 26 27  2  0
 28 27  1  0
 29 28  2  0
 30 25  2  0
 30 29  1  0
 31 32  1  0
 31 20  1  0
 33 31  2  0
M  END
$$$$
