VFW.pdb
     RDKit          3D

 33 35  0  0  1  0  0  0  0  0999 V2000
    7.8045  -23.1209   22.3618 C   0  0  0  0  0  0  0  0  0  0  0  0
    8.2326  -21.6995   22.3000 C   0  0  2  0  0  0  0  0  0  0  0  0
    7.8820  -21.0263   23.6343 C   0  0  0  0  0  0  0  0  0  0  0  0
    7.5205  -20.9428   21.2348 C   0  0  2  0  0  0  0  0  0  0  0  0
    7.6986  -21.5390   19.9337 N   0  0  0  0  0  0  0  0  0  0  0  0
    8.0269  -19.5396   21.1704 C   0  0  0  0  0  0  0  0  0  0  0  0
    9.1800  -19.2691   20.7407 O   0  0  0  0  0  0  0  0  0  0  0  0
    7.2397  -18.4388   21.5886 N   0  0  0  0  0  0  0  0  0  0  0  0
    7.7235  -17.0864   21.6899 C   0  0  1  0  0  0  0  0  0  0  0  0
    6.7529  -16.0587   21.2322 C   0  0  0  0  0  0  0  0  0  0  0  0
    7.2679  -14.6914   21.1503 C   0  0  0  0  0  0  0  0  0  0  0  0
    8.5049  -14.3847   21.6790 C   0  0  0  0  0  0  0  0  0  0  0  0
    9.0033  -13.0798   21.6019 C   0  0  0  0  0  0  0  0  0  0  0  0
    8.2584  -12.0728   20.9907 C   0  0  0  0  0  0  0  0  0  0  0  0
    7.0226  -12.3846   20.4640 C   0  0  0  0  0  0  0  0  0  0  0  0
    6.5439  -13.6913   20.5512 C   0  0  0  0  0  0  0  0  0  0  0  0
    8.3068  -16.8150   23.0363 C   0  0  0  0  0  0  0  0  0  0  0  0
    7.6756  -17.2246   24.0316 O   0  0  0  0  0  0  0  0  0  0  0  0
    9.5124  -16.1302   23.1967 N   0  0  0  0  0  0  0  0  0  0  0  0
   10.2495  -15.9310   24.4247 C   0  0  1  0  0  0  0  0  0  0  0  0
    9.4343  -16.1092   25.6416 C   0  0  0  0  0  0  0  0  0  0  0  0
    9.2600  -14.8387   26.3815 C   0  0  0  0  0  0  0  0  0  0  0  0
   10.0692  -14.2851   27.3511 C   0  0  0  0  0  0  0  0  0  0  0  0
    9.5015  -13.1385   27.7466 N   0  0  0  0  0  0  0  0  0  0  0  0
    8.3595  -12.9136   27.0835 C   0  0  0  0  0  0  0  0  0  0  0  0
    7.4192  -11.8871   27.1283 C   0  0  0  0  0  0  0  0  0  0  0  0
    6.3074  -11.9013   26.3209 C   0  0  0  0  0  0  0  0  0  0  0  0
    6.1375  -12.9690   25.4507 C   0  0  0  0  0  0  0  0  0  0  0  0
    7.0799  -13.9775   25.4200 C   0  0  0  0  0  0  0  0  0  0  0  0
    8.1809  -13.9626   26.2201 C   0  0  0  0  0  0  0  0  0  0  0  0
   11.4940  -16.7436   24.5097 C   0  0  0  0  0  0  0  0  0  0  0  0
   11.9559  -17.5900   23.5160 O   0  0  0  0  0  0  0  0  0  0  0  0
   12.1723  -16.6445   25.5688 O   0  0  0  0  0  0  0  0  0  0  0  0
  2  3  1  1
  2  1  1  0
  4  2  1  0
  4  5  1  6
  6  4  1  0
  6  7  2  0
  8  6  1  0
  9 10  1  1
  9  8  1  0
 11 16  1  0
 11 10  1  0
 12 11  2  0
 13 14  2  0
 13 12  1  0
 14 15  1  0
 15 16  2  0
 17  9  1  0
 18 17  2  0
 19 17  1  0
 20 21  1  1
 20 19  1  0
 21 22  1  0
 22 30  1  0
 23 22  2  0
 23 24  1  0
 24 25  1  0
 25 26  1  0
 26 27  2  0
 28 27  1  0
 29 28  2  0
 30 25  2  0
 30 29  1  0
 31 32  1  0
 31 20  1  0
 33 31  2  0
M  END
$$$$
