VFW.pdb
     RDKit          3D

 33 35  0  0  1  0  0  0  0  0999 V2000
    6.0892  -22.6106   22.9585 C   0  0  0  0  0  0  0  0  0  0  0  0
    6.3927  -21.1611   23.0785 C   0  0  2  0  0  0  0  0  0  0  0  0
    7.7889  -21.0048   23.6969 C   0  0  0  0  0  0  0  0  0  0  0  0
    5.4401  -20.4591   23.9807 C   0  0  2  0  0  0  0  0  0  0  0  0
    4.0701  -20.6320   23.5643 N   0  0  0  0  0  0  0  0  0  0  0  0
    5.7322  -18.9950   24.0033 C   0  0  0  0  0  0  0  0  0  0  0  0
    5.4315  -18.2431   23.0380 O   0  0  0  0  0  0  0  0  0  0  0  0
    6.3626  -18.3734   25.1090 N   0  0  0  0  0  0  0  0  0  0  0  0
    6.8411  -17.0154   25.1131 C   0  0  1  0  0  0  0  0  0  0  0  0
    6.4565  -16.2400   26.3208 C   0  0  0  0  0  0  0  0  0  0  0  0
    6.8015  -14.8181   26.2984 C   0  0  0  0  0  0  0  0  0  0  0  0
    5.8712  -13.8864   25.8856 C   0  0  0  0  0  0  0  0  0  0  0  0
    6.1947  -12.5255   25.8641 C   0  0  0  0  0  0  0  0  0  0  0  0
    7.4592  -12.0924   26.2588 C   0  0  0  0  0  0  0  0  0  0  0  0
    8.3853  -13.0276   26.6704 C   0  0  0  0  0  0  0  0  0  0  0  0
    8.0432  -14.3793   26.6845 C   0  0  0  0  0  0  0  0  0  0  0  0
    8.2952  -16.9484   24.7850 C   0  0  0  0  0  0  0  0  0  0  0  0
    9.0706  -17.6635   25.4515 O   0  0  0  0  0  0  0  0  0  0  0  0
    8.7888  -16.1227   23.7736 N   0  0  0  0  0  0  0  0  0  0  0  0
   10.0785  -16.2078   23.1252 C   0  0  1  0  0  0  0  0  0  0  0  0
   10.1663  -15.4299   21.8745 C   0  0  0  0  0  0  0  0  0  0  0  0
    8.8677  -14.8192   21.5106 C   0  0  0  0  0  0  0  0  0  0  0  0
    7.6047  -15.3683   21.5797 C   0  0  0  0  0  0  0  0  0  0  0  0
    6.7391  -14.4518   21.1278 N   0  0  0  0  0  0  0  0  0  0  0  0
    7.3732  -13.3288   20.7657 C   0  0  0  0  0  0  0  0  0  0  0  0
    6.9346  -12.1134   20.2456 C   0  0  0  0  0  0  0  0  0  0  0  0
    7.8170  -11.1015   19.9535 C   0  0  0  0  0  0  0  0  0  0  0  0
    9.1679  -11.3155   20.1890 C   0  0  0  0  0  0  0  0  0  0  0  0
    9.5843  -12.5265   20.7049 C   0  0  0  0  0  0  0  0  0  0  0  0
    8.7095  -13.5283   20.9941 C   0  0  0  0  0  0  0  0  0  0  0  0
   11.2186  -15.8770   24.0237 C   0  0  0  0  0  0  0  0  0  0  0  0
   12.5552  -16.0083   23.6873 O   0  0  0  0  0  0  0  0  0  0  0  0
   10.9350  -15.4430   25.1738 O   0  0  0  0  0  0  0  0  0  0  0  0
  2  3  1  1
  2  1  1  0
  4  2  1  0
  4  5  1  6
  6  4  1  0
  6  7  2  0
  8  6  1  0
  9 10  1  1
  9  8  1  0
 11 16  1  0
 11 10  1  0
 12 11  2  0
 13 14  2  0
 13 12  1  0
 14 15  1  0
 15 16  2  0
 17  9  1  0
 18 17  2  0
 19 17  1  0
 20 21  1  6
 20 19  1  0
 21 22  1  0
 22 30  1  0
 23 22  2  0
 23 24  1  0
 24 25  1  0
 25 26  1  0
 26 27  2  0
 28 27  1  0
 29 28  2  0
 30 25  2  0
 30 29  1  0
 31 32  1  0
 31 20  1  0
 33 31  2  0
M  END
$$$$
