VFW.pdb
     RDKit          3D

 33 35  0  0  1  0  0  0  0  0999 V2000
    6.9962  -22.6067   23.5455 C   0  0  0  0  0  0  0  0  0  0  0  0
    7.4723  -21.2439   23.1935 C   0  0  2  0  0  0  0  0  0  0  0  0
    7.3744  -20.3558   24.4417 C   0  0  0  0  0  0  0  0  0  0  0  0
    6.6313  -20.6073   22.1439 C   0  0  2  0  0  0  0  0  0  0  0  0
    6.5069  -21.4367   20.9707 N   0  0  0  0  0  0  0  0  0  0  0  0
    7.2265  -19.3038   21.7242 C   0  0  0  0  0  0  0  0  0  0  0  0
    8.2562  -19.2467   21.0002 O   0  0  0  0  0  0  0  0  0  0  0  0
    6.6670  -18.0632   22.1169 N   0  0  0  0  0  0  0  0  0  0  0  0
    7.2744  -16.7823   21.8649 C   0  0  1  0  0  0  0  0  0  0  0  0
    6.4301  -15.8570   21.0657 C   0  0  0  0  0  0  0  0  0  0  0  0
    7.0179  -14.5474   20.7814 C   0  0  0  0  0  0  0  0  0  0  0  0
    7.7036  -14.3375   19.6025 C   0  0  0  0  0  0  0  0  0  0  0  0
    8.2659  -13.0870   19.3243 C   0  0  0  0  0  0  0  0  0  0  0  0
    8.1415  -12.0374   20.2327 C   0  0  0  0  0  0  0  0  0  0  0  0
    7.4553  -12.2524   21.4095 C   0  0  0  0  0  0  0  0  0  0  0  0
    6.9024  -13.5061   21.6678 C   0  0  0  0  0  0  0  0  0  0  0  0
    7.8185  -16.1807   23.1173 C   0  0  0  0  0  0  0  0  0  0  0  0
    7.4346  -15.0328   23.4200 O   0  0  0  0  0  0  0  0  0  0  0  0
    8.7241  -16.8611   23.9329 N   0  0  0  0  0  0  0  0  0  0  0  0
    9.9866  -16.3702   24.4390 C   0  0  1  0  0  0  0  0  0  0  0  0
    9.8625  -15.1515   25.2617 C   0  0  0  0  0  0  0  0  0  0  0  0
    8.4493  -14.8293   25.5633 C   0  0  0  0  0  0  0  0  0  0  0  0
    7.3639  -15.6774   25.6263 C   0  0  0  0  0  0  0  0  0  0  0  0
    6.2862  -14.9357   25.9125 N   0  0  0  0  0  0  0  0  0  0  0  0
    6.6123  -13.6427   26.0399 C   0  0  0  0  0  0  0  0  0  0  0  0
    5.8720  -12.4980   26.3251 C   0  0  0  0  0  0  0  0  0  0  0  0
    6.4678  -11.2619   26.3981 C   0  0  0  0  0  0  0  0  0  0  0  0
    7.8356  -11.1748   26.1800 C   0  0  0  0  0  0  0  0  0  0  0  0
    8.5533  -12.3202   25.8985 C   0  0  0  0  0  0  0  0  0  0  0  0
    7.9623  -13.5442   25.8265 C   0  0  0  0  0  0  0  0  0  0  0  0
   10.7811  -17.4036   25.1582 C   0  0  0  0  0  0  0  0  0  0  0  0
   12.0412  -17.2013   25.6952 O   0  0  0  0  0  0  0  0  0  0  0  0
   10.2573  -18.5443   25.2847 O   0  0  0  0  0  0  0  0  0  0  0  0
  2  3  1  1
  2  1  1  0
  4  2  1  0
  4  5  1  6
  6  4  1  0
  6  7  2  0
  8  6  1  0
  9 10  1  1
  9  8  1  0
 11 16  1  0
 11 10  1  0
 12 11  2  0
 13 14  2  0
 13 12  1  0
 14 15  1  0
 15 16  2  0
 17  9  1  0
 18 17  2  0
 19 17  1  0
 20 21  1  1
 20 19  1  0
 21 22  1  0
 22 30  1  0
 23 22  2  0
 23 24  1  0
 24 25  1  0
 25 26  1  0
 26 27  2  0
 28 27  1  0
 29 28  2  0
 30 25  2  0
 30 29  1  0
 31 32  1  0
 31 20  1  0
 33 31  2  0
M  END
$$$$
