VFW.pdb
     RDKit          3D

 33 35  0  0  1  0  0  0  0  0999 V2000
    9.8137  -18.2407   17.0917 C   0  0  0  0  0  0  0  0  0  0  0  0
    9.9352  -17.3617   18.2834 C   0  0  2  0  0  0  0  0  0  0  0  0
   10.5621  -18.1731   19.4258 C   0  0  0  0  0  0  0  0  0  0  0  0
    8.6117  -16.8848   18.7685 C   0  0  2  0  0  0  0  0  0  0  0  0
    7.8433  -16.2579   17.7215 N   0  0  0  0  0  0  0  0  0  0  0  0
    8.7914  -15.8886   19.8661 C   0  0  0  0  0  0  0  0  0  0  0  0
    8.6911  -14.6495   19.6609 O   0  0  0  0  0  0  0  0  0  0  0  0
    9.0844  -16.2820   21.1950 N   0  0  0  0  0  0  0  0  0  0  0  0
    8.8580  -15.4586   22.3543 C   0  0  1  0  0  0  0  0  0  0  0  0
    7.4925  -14.8776   22.4288 C   0  0  0  0  0  0  0  0  0  0  0  0
    7.1951  -14.1090   23.6380 C   0  0  0  0  0  0  0  0  0  0  0  0
    7.5975  -12.7930   23.7384 C   0  0  0  0  0  0  0  0  0  0  0  0
    7.3142  -12.0527   24.8912 C   0  0  0  0  0  0  0  0  0  0  0  0
    6.6224  -12.6332   25.9527 C   0  0  0  0  0  0  0  0  0  0  0  0
    6.2225  -13.9488   25.8474 C   0  0  0  0  0  0  0  0  0  0  0  0
    6.5148  -14.6694   24.6900 C   0  0  0  0  0  0  0  0  0  0  0  0
    9.2959  -16.1449   23.6048 C   0  0  0  0  0  0  0  0  0  0  0  0
    8.6480  -17.1467   23.9703 O   0  0  0  0  0  0  0  0  0  0  0  0
   10.3872  -15.6979   24.3516 N   0  0  0  0  0  0  0  0  0  0  0  0
   11.3241  -16.5045   25.1017 C   0  0  1  0  0  0  0  0  0  0  0  0
   10.6824  -17.4059   26.0778 C   0  0  0  0  0  0  0  0  0  0  0  0
    9.7052  -16.6920   26.9307 C   0  0  0  0  0  0  0  0  0  0  0  0
    8.3633  -16.9524   27.1117 C   0  0  0  0  0  0  0  0  0  0  0  0
    7.8828  -16.0332   27.9589 N   0  0  0  0  0  0  0  0  0  0  0  0
    8.8443  -15.1828   28.3418 C   0  0  0  0  0  0  0  0  0  0  0  0
    8.8558  -14.0785   29.1905 C   0  0  0  0  0  0  0  0  0  0  0  0
   10.0066  -13.3620   29.4148 C   0  0  0  0  0  0  0  0  0  0  0  0
   11.1696  -13.7638   28.7729 C   0  0  0  0  0  0  0  0  0  0  0  0
   11.1394  -14.8608   27.9352 C   0  0  0  0  0  0  0  0  0  0  0  0
    9.9991  -15.5700   27.7137 C   0  0  0  0  0  0  0  0  0  0  0  0
   12.2768  -17.2615   24.2439 C   0  0  0  0  0  0  0  0  0  0  0  0
   12.2603  -17.2698   22.8594 O   0  0  0  0  0  0  0  0  0  0  0  0
   13.1626  -17.9406   24.8319 O   0  0  0  0  0  0  0  0  0  0  0  0
  2  3  1  1
  2  1  1  0
  4  2  1  0
  4  5  1  6
  6  4  1  0
  6  7  2  0
  8  6  1  0
  9 10  1  1
  9  8  1  0
 11 16  1  0
 11 10  1  0
 12 11  2  0
 13 14  2  0
 13 12  1  0
 14 15  1  0
 15 16  2  0
 17  9  1  0
 18 17  2  0
 19 17  1  0
 20 21  1  6
 20 19  1  0
 21 22  1  0
 22 30  1  0
 23 22  2  0
 23 24  1  0
 24 25  1  0
 25 26  1  0
 26 27  2  0
 28 27  1  0
 29 28  2  0
 30 25  2  0
 30 29  1  0
 31 32  1  0
 31 20  1  0
 33 31  2  0
M  END
$$$$
