VFW.pdb
     RDKit          3D

 33 35  0  0  1  0  0  0  0  0999 V2000
    7.8663  -22.1227   23.7872 C   0  0  0  0  0  0  0  0  0  0  0  0
    8.2502  -20.7381   23.4090 C   0  0  2  0  0  0  0  0  0  0  0  0
    8.7607  -20.0140   24.6626 C   0  0  0  0  0  0  0  0  0  0  0  0
    7.0941  -19.9529   22.8980 C   0  0  2  0  0  0  0  0  0  0  0  0
    6.3847  -20.6487   21.8527 N   0  0  0  0  0  0  0  0  0  0  0  0
    7.5598  -18.6460   22.3459 C   0  0  0  0  0  0  0  0  0  0  0  0
    8.1287  -18.5639   21.2248 O   0  0  0  0  0  0  0  0  0  0  0  0
    7.3878  -17.4302   23.0520 N   0  0  0  0  0  0  0  0  0  0  0  0
    7.7962  -16.1403   22.5594 C   0  0  1  0  0  0  0  0  0  0  0  0
    6.8054  -15.0587   22.7962 C   0  0  0  0  0  0  0  0  0  0  0  0
    7.1478  -14.1045   23.8515 C   0  0  0  0  0  0  0  0  0  0  0  0
    7.8824  -12.9755   23.5523 C   0  0  0  0  0  0  0  0  0  0  0  0
    8.2110  -12.0586   24.5567 C   0  0  0  0  0  0  0  0  0  0  0  0
    7.8013  -12.2726   25.8715 C   0  0  0  0  0  0  0  0  0  0  0  0
    7.0674  -13.4025   26.1653 C   0  0  0  0  0  0  0  0  0  0  0  0
    6.7504  -14.3040   25.1498 C   0  0  0  0  0  0  0  0  0  0  0  0
    9.1818  -15.8025   22.9981 C   0  0  0  0  0  0  0  0  0  0  0  0
    9.6558  -14.7110   22.6228 O   0  0  0  0  0  0  0  0  0  0  0  0
    9.9354  -16.6624   23.7987 N   0  0  0  0  0  0  0  0  0  0  0  0
   11.3627  -16.6201   24.0271 C   0  0  1  0  0  0  0  0  0  0  0  0
   11.7390  -16.0173   25.3202 C   0  0  0  0  0  0  0  0  0  0  0  0
   10.8957  -16.5171   26.4297 C   0  0  0  0  0  0  0  0  0  0  0  0
   10.4147  -17.7916   26.6434 C   0  0  0  0  0  0  0  0  0  0  0  0
    9.6824  -17.7657   27.7643 N   0  0  0  0  0  0  0  0  0  0  0  0
    9.6599  -16.5363   28.2957 C   0  0  0  0  0  0  0  0  0  0  0  0
    9.0540  -16.0003   29.4295 C   0  0  0  0  0  0  0  0  0  0  0  0
    9.1932  -14.6723   29.7536 C   0  0  0  0  0  0  0  0  0  0  0  0
    9.9573  -13.8666   28.9210 C   0  0  0  0  0  0  0  0  0  0  0  0
   10.5504  -14.4152   27.8014 C   0  0  0  0  0  0  0  0  0  0  0  0
   10.4119  -15.7308   27.4812 C   0  0  0  0  0  0  0  0  0  0  0  0
   12.0317  -17.9388   23.8545 C   0  0  0  0  0  0  0  0  0  0  0  0
   13.4006  -18.1431   23.8948 O   0  0  0  0  0  0  0  0  0  0  0  0
   11.2871  -18.9385   23.6603 O   0  0  0  0  0  0  0  0  0  0  0  0
  2  3  1  1
  2  1  1  0
  4  2  1  0
  4  5  1  6
  6  4  1  0
  6  7  2  0
  8  6  1  0
  9 10  1  1
  9  8  1  0
 11 16  1  0
 11 10  1  0
 12 11  2  0
 13 14  2  0
 13 12  1  0
 14 15  1  0
 15 16  2  0
 17  9  1  0
 18 17  2  0
 19 17  1  0
 20 21  1  1
 20 19  1  0
 21 22  1  0
 22 30  1  0
 23 22  2  0
 23 24  1  0
 24 25  1  0
 25 26  1  0
 26 27  2  0
 28 27  1  0
 29 28  2  0
 30 25  2  0
 30 29  1  0
 31 32  1  0
 31 20  1  0
 33 31  2  0
M  END
$$$$
