VFW.pdb
     RDKit          3D

 33 35  0  0  1  0  0  0  0  0999 V2000
   10.8740  -19.3773   20.2926 C   0  0  0  0  0  0  0  0  0  0  0  0
    9.4175  -19.6708   20.2954 C   0  0  2  0  0  0  0  0  0  0  0  0
    9.1740  -20.9385   19.4647 C   0  0  0  0  0  0  0  0  0  0  0  0
    8.6226  -18.5824   19.6648 C   0  0  2  0  0  0  0  0  0  0  0  0
    9.0827  -18.2757   18.3328 N   0  0  0  0  0  0  0  0  0  0  0  0
    8.7141  -17.3354   20.4810 C   0  0  0  0  0  0  0  0  0  0  0  0
    9.5931  -16.4603   20.2599 O   0  0  0  0  0  0  0  0  0  0  0  0
    7.8194  -17.0697   21.5465 N   0  0  0  0  0  0  0  0  0  0  0  0
    7.9437  -15.9581   22.4532 C   0  0  1  0  0  0  0  0  0  0  0  0
    6.9198  -15.9356   23.5298 C   0  0  0  0  0  0  0  0  0  0  0  0
    7.0516  -14.8555   24.5083 C   0  0  0  0  0  0  0  0  0  0  0  0
    7.6628  -13.6705   24.1533 C   0  0  0  0  0  0  0  0  0  0  0  0
    7.7898  -12.6336   25.0839 C   0  0  0  0  0  0  0  0  0  0  0  0
    7.3013  -12.7830   26.3806 C   0  0  0  0  0  0  0  0  0  0  0  0
    6.6914  -13.9693   26.7304 C   0  0  0  0  0  0  0  0  0  0  0  0
    6.5749  -14.9905   25.7881 C   0  0  0  0  0  0  0  0  0  0  0  0
    9.3450  -15.8080   22.9435 C   0  0  0  0  0  0  0  0  0  0  0  0
    9.9311  -14.7348   22.6956 O   0  0  0  0  0  0  0  0  0  0  0  0
    9.9930  -16.8193   23.6546 N   0  0  0  0  0  0  0  0  0  0  0  0
   11.2954  -16.7538   24.2795 C   0  0  1  0  0  0  0  0  0  0  0  0
   11.4072  -15.7027   25.3091 C   0  0  0  0  0  0  0  0  0  0  0  0
   10.7627  -16.1030   26.5804 C   0  0  0  0  0  0  0  0  0  0  0  0
   10.3877  -17.3617   27.0006 C   0  0  0  0  0  0  0  0  0  0  0  0
    9.8260  -17.2347   28.2096 N   0  0  0  0  0  0  0  0  0  0  0  0
    9.8143  -15.9541   28.6024 C   0  0  0  0  0  0  0  0  0  0  0  0
    9.3517  -15.3146   29.7499 C   0  0  0  0  0  0  0  0  0  0  0  0
    9.4643  -13.9538   29.9038 C   0  0  0  0  0  0  0  0  0  0  0  0
   10.0542  -13.2210   28.8835 C   0  0  0  0  0  0  0  0  0  0  0  0
   10.5070  -13.8719   27.7533 C   0  0  0  0  0  0  0  0  0  0  0  0
   10.3950  -15.2198   27.6016 C   0  0  0  0  0  0  0  0  0  0  0  0
   11.7626  -18.0605   24.8184 C   0  0  0  0  0  0  0  0  0  0  0  0
   10.9928  -19.2093   24.8868 O   0  0  0  0  0  0  0  0  0  0  0  0
   12.9508  -18.1154   25.2391 O   0  0  0  0  0  0  0  0  0  0  0  0
  2  3  1  6
  2  1  1  0
  4  2  1  0
  4  5  1  6
  6  4  1  0
  6  7  2  0
  8  6  1  0
  9 10  1  1
  9  8  1  0
 11 16  1  0
 11 10  1  0
 12 11  2  0
 13 14  2  0
 13 12  1  0
 14 15  1  0
 15 16  2  0
 17  9  1  0
 18 17  2  0
 19 17  1  0
 20 21  1  1
 20 19  1  0
 21 22  1  0
 22 30  1  0
 23 22  2  0
 23 24  1  0
 24 25  1  0
 25 26  1  0
 26 27  2  0
 28 27  1  0
 29 28  2  0
 30 25  2  0
 30 29  1  0
 31 32  1  0
 31 20  1  0
 33 31  2  0
M  END
$$$$
