KYA.pdb
     RDKit          3D

 27 27  0  0  1  0  0  0  0  0999 V2000
   18.8972  -10.2877  -17.5939 N   0  0  0  0  0  0  0  0  0  0  0  0
   19.6616  -10.5738  -16.4128 C   0  0  1  0  0  0  0  0  0  0  0  0
   19.9426  -12.0133  -16.2115 C   0  0  0  0  0  0  0  0  0  0  0  0
   18.7750  -12.9312  -16.3398 C   0  0  0  0  0  0  0  0  0  0  0  0
   17.6917  -12.6570  -15.3424 C   0  0  0  0  0  0  0  0  0  0  0  0
   16.5549  -13.6790  -15.4852 C   0  0  0  0  0  0  0  0  0  0  0  0
   15.4540  -13.2987  -14.6265 N   0  0  0  0  0  0  0  0  0  0  0  0
   20.8772   -9.7194  -16.3095 C   0  0  0  0  0  0  0  0  0  0  0  0
   21.6648   -9.8003  -15.3191 O   0  0  0  0  0  0  0  0  0  0  0  0
   27.0857   -3.7904  -17.9403 O   0  0  0  0  0  0  0  0  0  0  0  0
   26.0769   -4.7219  -18.0717 C   0  0  0  0  0  0  0  0  0  0  0  0
   24.9347   -4.4200  -18.7547 C   0  0  0  0  0  0  0  0  0  0  0  0
   23.9454   -5.3453  -18.8789 C   0  0  0  0  0  0  0  0  0  0  0  0
   24.1007   -6.5867  -18.3135 C   0  0  0  0  0  0  0  0  0  0  0  0
   23.0747   -7.6241  -18.4101 C   0  0  0  0  0  0  0  0  0  0  0  0
   22.3236   -7.8109  -17.1417 C   0  0  2  0  0  0  0  0  0  0  0  0
   21.2257   -8.7688  -17.3069 N   0  0  0  0  0  0  0  0  0  0  0  0
   21.8728   -6.5471  -16.5878 C   0  0  0  0  0  0  0  0  0  0  0  0
   20.9204   -5.9224  -17.0952 O   0  0  0  0  0  0  0  0  0  0  0  0
   25.2588   -6.9119  -17.6135 C   0  0  0  0  0  0  0  0  0  0  0  0
   26.2428   -5.9625  -17.5014 C   0  0  0  0  0  0  0  0  0  0  0  0
   22.4845   -3.6617  -15.9410 C   0  0  0  0  0  0  0  0  0  0  0  0
   22.2053   -4.7243  -14.8710 C   0  0  2  0  0  0  0  0  0  0  0  0
   22.5064   -5.9904  -15.4524 N   0  0  0  0  0  0  0  0  0  0  0  0
   20.8108   -4.5600  -14.4591 C   0  0  0  0  0  0  0  0  0  0  0  0
   20.4212   -3.4778  -13.9757 O   0  0  0  0  0  0  0  0  0  0  0  0
   19.9099   -5.5930  -14.5979 O   0  0  0  0  0  0  0  0  0  0  0  0
  2  3  1  0
  2  1  1  6
  4  3  1  0
  5  6  1  0
  5  4  1  0
  6  7  1  0
  8  2  1  0
  8  9  2  0
 10 11  1  0
 11 12  2  0
 12 13  1  0
 14 13  2  0
 14 15  1  0
 16 15  1  6
 16 17  1  0
 17  8  1  0
 18 16  1  0
 19 18  2  0
 20 14  1  0
 21 11  1  0
 21 20  2  0
 23 22  1  6
 23 25  1  0
 23 24  1  0
 24 18  1  0
 25 27  1  0
 26 25  2  0
M  END
$$$$
