KYA.pdb
     RDKit          3D

 27 27  0  0  1  0  0  0  0  0999 V2000
   28.5142  -22.5973  -18.2875 N   0  0  0  0  0  0  0  0  0  0  0  0
   28.5107  -21.3989  -17.4970 C   0  0  1  0  0  0  0  0  0  0  0  0
   28.2046  -20.1713  -18.2656 C   0  0  0  0  0  0  0  0  0  0  0  0
   27.1653  -20.3064  -19.3259 C   0  0  0  0  0  0  0  0  0  0  0  0
   25.7656  -20.2203  -18.7997 C   0  0  0  0  0  0  0  0  0  0  0  0
   24.7495  -20.4384  -19.9299 C   0  0  0  0  0  0  0  0  0  0  0  0
   23.4117  -20.4570  -19.3786 N   0  0  0  0  0  0  0  0  0  0  0  0
   27.6847  -21.5405  -16.2656 C   0  0  0  0  0  0  0  0  0  0  0  0
   26.8835  -22.5108  -16.1102 O   0  0  0  0  0  0  0  0  0  0  0  0
   24.7884  -20.5720   -8.0547 O   0  0  0  0  0  0  0  0  0  0  0  0
   25.4958  -20.4627   -9.2338 C   0  0  0  0  0  0  0  0  0  0  0  0
   26.3599  -21.4453   -9.6212 C   0  0  0  0  0  0  0  0  0  0  0  0
   27.0531  -21.3285  -10.7857 C   0  0  0  0  0  0  0  0  0  0  0  0
   26.8798  -20.2162  -11.5715 C   0  0  0  0  0  0  0  0  0  0  0  0
   27.5957  -20.0302  -12.8329 C   0  0  0  0  0  0  0  0  0  0  0  0
   26.9635  -20.7543  -13.9659 C   0  0  2  0  0  0  0  0  0  0  0  0
   27.7439  -20.6039  -15.1982 N   0  0  0  0  0  0  0  0  0  0  0  0
   25.5740  -20.3736  -14.1445 C   0  0  0  0  0  0  0  0  0  0  0  0
   25.2641  -19.2564  -14.6033 O   0  0  0  0  0  0  0  0  0  0  0  0
   26.0027  -19.2044  -11.1920 C   0  0  0  0  0  0  0  0  0  0  0  0
   25.3146  -19.3442  -10.0134 C   0  0  0  0  0  0  0  0  0  0  0  0
   22.4754  -22.3525  -14.3021 C   0  0  0  0  0  0  0  0  0  0  0  0
   23.1377  -21.0134  -13.9555 C   0  0  2  0  0  0  0  0  0  0  0  0
   24.5320  -21.2659  -13.8004 N   0  0  0  0  0  0  0  0  0  0  0  0
   22.4738  -20.5064  -12.7540 C   0  0  0  0  0  0  0  0  0  0  0  0
   23.0530  -20.5498  -11.6499 O   0  0  0  0  0  0  0  0  0  0  0  0
   21.2045  -19.9755  -12.8225 O   0  0  0  0  0  0  0  0  0  0  0  0
  2  3  1  0
  2  1  1  6
  4  3  1  0
  5  6  1  0
  5  4  1  0
  6  7  1  0
  8  2  1  0
  8  9  2  0
 10 11  1  0
 11 12  2  0
 12 13  1  0
 14 13  2  0
 14 15  1  0
 16 15  1  1
 16 17  1  0
 17  8  1  0
 18 16  1  0
 19 18  2  0
 20 14  1  0
 21 11  1  0
 21 20  2  0
 23 22  1  1
 23 25  1  0
 23 24  1  0
 24 18  1  0
 25 27  1  0
 26 25  2  0
M  END
$$$$
