KYA.pdb
     RDKit          3D

 27 27  0  0  1  0  0  0  0  0999 V2000
   24.6569  -21.0598  -15.9119 N   0  0  0  0  0  0  0  0  0  0  0  0
   24.2023  -22.3999  -15.6697 C   0  0  1  0  0  0  0  0  0  0  0  0
   25.2937  -23.3751  -15.4475 C   0  0  0  0  0  0  0  0  0  0  0  0
   26.3090  -23.4782  -16.5343 C   0  0  0  0  0  0  0  0  0  0  0  0
   27.1359  -24.7248  -16.4580 C   0  0  0  0  0  0  0  0  0  0  0  0
   26.4042  -25.8995  -17.1227 C   0  0  0  0  0  0  0  0  0  0  0  0
   27.2144  -27.0939  -17.0176 N   0  0  0  0  0  0  0  0  0  0  0  0
   23.1458  -22.4540  -14.6212 C   0  0  0  0  0  0  0  0  0  0  0  0
   23.3320  -21.9706  -13.4639 O   0  0  0  0  0  0  0  0  0  0  0  0
   21.0255  -16.7931  -14.8070 O   0  0  0  0  0  0  0  0  0  0  0  0
   20.6938  -18.1289  -14.7161 C   0  0  0  0  0  0  0  0  0  0  0  0
   20.7983  -18.9480  -15.8026 C   0  0  0  0  0  0  0  0  0  0  0  0
   20.4689  -20.2640  -15.7032 C   0  0  0  0  0  0  0  0  0  0  0  0
   20.0300  -20.7662  -14.5033 C   0  0  0  0  0  0  0  0  0  0  0  0
   19.6593  -22.1702  -14.3315 C   0  0  0  0  0  0  0  0  0  0  0  0
   20.7913  -23.0116  -13.8645 C   0  0  2  0  0  0  0  0  0  0  0  0
   21.8745  -23.0460  -14.8523 N   0  0  0  0  0  0  0  0  0  0  0  0
   20.3552  -24.3416  -13.4795 C   0  0  0  0  0  0  0  0  0  0  0  0
   20.2210  -25.2476  -14.3255 O   0  0  0  0  0  0  0  0  0  0  0  0
   19.9173  -19.9454  -13.3849 C   0  0  0  0  0  0  0  0  0  0  0  0
   20.2552  -18.6216  -13.5093 C   0  0  0  0  0  0  0  0  0  0  0  0
   19.4150  -25.7470  -10.1236 C   0  0  0  0  0  0  0  0  0  0  0  0
   19.6177  -25.9028  -11.6358 C   0  0  2  0  0  0  0  0  0  0  0  0
   20.0704  -24.6438  -12.1275 N   0  0  0  0  0  0  0  0  0  0  0  0
   18.3415  -26.3509  -12.1942 C   0  0  0  0  0  0  0  0  0  0  0  0
   18.0968  -27.5693  -12.3050 O   0  0  0  0  0  0  0  0  0  0  0  0
   17.3941  -25.4389  -12.6045 O   0  0  0  0  0  0  0  0  0  0  0  0
  2  3  1  0
  2  1  1  1
  4  3  1  0
  5  6  1  0
  5  4  1  0
  6  7  1  0
  8  2  1  0
  8  9  2  0
 10 11  1  0
 11 12  2  0
 12 13  1  0
 14 13  2  0
 14 15  1  0
 16 15  1  6
 16 17  1  0
 17  8  1  0
 18 16  1  0
 19 18  2  0
 20 14  1  0
 21 11  1  0
 21 20  2  0
 23 22  1  1
 23 25  1  0
 23 24  1  0
 24 18  1  0
 25 27  1  0
 26 25  2  0
M  END
$$$$
