KYA.pdb
     RDKit          3D

 27 27  0  0  1  0  0  0  0  0999 V2000
   22.7278  -15.2234  -20.1155 N   0  0  0  0  0  0  0  0  0  0  0  0
   23.3101  -16.5093  -20.3771 C   0  0  1  0  0  0  0  0  0  0  0  0
   24.6671  -16.4474  -20.9658 C   0  0  0  0  0  0  0  0  0  0  0  0
   24.9747  -15.2318  -21.7721 C   0  0  0  0  0  0  0  0  0  0  0  0
   26.0202  -14.3568  -21.1519 C   0  0  0  0  0  0  0  0  0  0  0  0
   26.2744  -13.1186  -22.0232 C   0  0  0  0  0  0  0  0  0  0  0  0
   27.2490  -12.2661  -21.3771 N   0  0  0  0  0  0  0  0  0  0  0  0
   23.2235  -17.4157  -19.1984 C   0  0  0  0  0  0  0  0  0  0  0  0
   23.6501  -18.6089  -19.2442 O   0  0  0  0  0  0  0  0  0  0  0  0
   28.9503  -17.4337  -17.4143 O   0  0  0  0  0  0  0  0  0  0  0  0
   27.6342  -17.3637  -17.0072 C   0  0  0  0  0  0  0  0  0  0  0  0
   26.9410  -16.1911  -17.0898 C   0  0  0  0  0  0  0  0  0  0  0  0
   25.6435  -16.1320  -16.6860 C   0  0  0  0  0  0  0  0  0  0  0  0
   25.0325  -17.2586  -16.1939 C   0  0  0  0  0  0  0  0  0  0  0  0
   23.6418  -17.2605  -15.7424 C   0  0  0  0  0  0  0  0  0  0  0  0
   22.7099  -17.8290  -16.7505 C   0  0  2  0  0  0  0  0  0  0  0  0
   22.6619  -17.0017  -17.9602 N   0  0  0  0  0  0  0  0  0  0  0  0
   21.3905  -18.0682  -16.1946 C   0  0  0  0  0  0  0  0  0  0  0  0
   20.5413  -17.1574  -16.1313 O   0  0  0  0  0  0  0  0  0  0  0  0
   25.7242  -18.4629  -16.1026 C   0  0  0  0  0  0  0  0  0  0  0  0
   27.0319  -18.4984  -16.5159 C   0  0  0  0  0  0  0  0  0  0  0  0
   19.4223  -21.0865  -15.5057 C   0  0  0  0  0  0  0  0  0  0  0  0
   19.8126  -19.6751  -15.0503 C   0  0  2  0  0  0  0  0  0  0  0  0
   21.0340  -19.3477  -15.7085 N   0  0  0  0  0  0  0  0  0  0  0  0
   19.8976  -19.7053  -13.5898 C   0  0  0  0  0  0  0  0  0  0  0  0
   21.0095  -19.7461  -13.0254 O   0  0  0  0  0  0  0  0  0  0  0  0
   18.7565  -19.6892  -12.8182 O   0  0  0  0  0  0  0  0  0  0  0  0
  2  3  1  0
  2  1  1  1
  4  3  1  0
  5  6  1  0
  5  4  1  0
  6  7  1  0
  8  2  1  0
  8  9  2  0
 10 11  1  0
 11 12  2  0
 12 13  1  0
 14 13  2  0
 14 15  1  0
 16 15  1  1
 16 17  1  0
 17  8  1  0
 18 16  1  0
 19 18  2  0
 20 14  1  0
 21 11  1  0
 21 20  2  0
 23 22  1  6
 23 25  1  0
 23 24  1  0
 24 18  1  0
 25 27  1  0
 26 25  2  0
M  END
$$$$
