KYA.pdb
     RDKit          3D

 27 27  0  0  1  0  0  0  0  0999 V2000
   24.8190  -24.5129  -15.3277 N   0  0  0  0  0  0  0  0  0  0  0  0
   26.0852  -23.8638  -15.5188 C   0  0  1  0  0  0  0  0  0  0  0  0
   26.8113  -24.3053  -16.7310 C   0  0  0  0  0  0  0  0  0  0  0  0
   27.2190  -25.7389  -16.7625 C   0  0  0  0  0  0  0  0  0  0  0  0
   28.6887  -25.9338  -16.9754 C   0  0  0  0  0  0  0  0  0  0  0  0
   29.0109  -27.4193  -17.1911 C   0  0  0  0  0  0  0  0  0  0  0  0
   30.4112  -27.5655  -17.5255 N   0  0  0  0  0  0  0  0  0  0  0  0
   25.9798  -22.3823  -15.4059 C   0  0  0  0  0  0  0  0  0  0  0  0
   24.8942  -21.7727  -15.6453 O   0  0  0  0  0  0  0  0  0  0  0  0
   24.1918  -20.7758   -9.4103 O   0  0  0  0  0  0  0  0  0  0  0  0
   25.0371  -20.4966  -10.4640 C   0  0  0  0  0  0  0  0  0  0  0  0
   26.2276  -21.1507  -10.5941 C   0  0  0  0  0  0  0  0  0  0  0  0
   27.0545  -20.8685  -11.6367 C   0  0  0  0  0  0  0  0  0  0  0  0
   26.6861  -19.9211  -12.5595 C   0  0  0  0  0  0  0  0  0  0  0  0
   27.5302  -19.5712  -13.7010 C   0  0  0  0  0  0  0  0  0  0  0  0
   27.0099  -20.1042  -14.9866 C   0  0  2  0  0  0  0  0  0  0  0  0
   27.0811  -21.5683  -15.0260 N   0  0  0  0  0  0  0  0  0  0  0  0
   27.6600  -19.4906  -16.1304 C   0  0  0  0  0  0  0  0  0  0  0  0
   28.7930  -19.8551  -16.5019 O   0  0  0  0  0  0  0  0  0  0  0  0
   25.4757  -19.2442  -12.4424 C   0  0  0  0  0  0  0  0  0  0  0  0
   24.6582  -19.5457  -11.3827 C   0  0  0  0  0  0  0  0  0  0  0  0
   27.3050  -19.2161  -19.0930 C   0  0  0  0  0  0  0  0  0  0  0  0
   27.3893  -18.0053  -18.1556 C   0  0  2  0  0  0  0  0  0  0  0  0
   27.0202  -18.4584  -16.8554 N   0  0  0  0  0  0  0  0  0  0  0  0
   26.5140  -16.9727  -18.7113 C   0  0  0  0  0  0  0  0  0  0  0  0
   25.4951  -16.6104  -18.0890 O   0  0  0  0  0  0  0  0  0  0  0  0
   26.7996  -16.3866  -19.9249 O   0  0  0  0  0  0  0  0  0  0  0  0
  2  3  1  0
  2  1  1  6
  4  3  1  0
  5  6  1  0
  5  4  1  0
  6  7  1  0
  8  2  1  0
  8  9  2  0
 10 11  1  0
 11 12  2  0
 12 13  1  0
 14 13  2  0
 14 15  1  0
 16 15  1  1
 16 17  1  0
 17  8  1  0
 18 16  1  0
 19 18  2  0
 20 14  1  0
 21 11  1  0
 21 20  2  0
 23 22  1  6
 23 25  1  0
 23 24  1  0
 24 18  1  0
 25 27  1  0
 26 25  2  0
M  END
$$$$
