HSV.pdb
     RDKit          3D

 24 24  0  0  1  0  0  0  0  0999 V2000
    8.3891  -17.7869   20.4246 N   0  0  0  0  0  0  0  0  0  0  0  0
    8.6949  -16.3890   20.4913 C   0  0  1  0  0  0  0  0  0  0  0  0
    7.9833  -15.5938   19.4184 C   0  0  0  0  0  0  0  0  0  0  0  0
    8.4454  -15.9921   18.0626 C   0  0  0  0  0  0  0  0  0  0  0  0
    9.4500  -16.9063   17.8477 C   0  0  0  0  0  0  0  0  0  0  0  0
    9.6283  -17.0453   16.5165 N   0  0  0  0  0  0  0  0  0  0  0  0
    8.7506  -16.2323   15.9157 C   0  0  0  0  0  0  0  0  0  0  0  0
    8.0331  -15.5937   16.8681 N   0  0  0  0  0  0  0  0  0  0  0  0
    8.4114  -15.8535   21.8478 C   0  0  0  0  0  0  0  0  0  0  0  0
    8.6221  -14.6395   22.0635 O   0  0  0  0  0  0  0  0  0  0  0  0
    6.9704  -18.3953   24.9644 O   0  0  0  0  0  0  0  0  0  0  0  0
    6.5301  -17.1116   24.7579 C   0  0  0  0  0  0  0  0  0  0  0  0
    7.6258  -16.1948   24.2177 C   0  0  2  0  0  0  0  0  0  0  0  0
    7.9204  -16.6755   22.8696 N   0  0  0  0  0  0  0  0  0  0  0  0
    8.8263  -16.2015   25.0679 C   0  0  0  0  0  0  0  0  0  0  0  0
    9.8450  -16.9255   24.8141 O   0  0  0  0  0  0  0  0  0  0  0  0
    8.7502  -14.1100   28.8315 C   0  0  0  0  0  0  0  0  0  0  0  0
    9.9777  -14.0427   27.9613 C   0  0  1  0  0  0  0  0  0  0  0  0
   11.1848  -13.9129   28.8386 C   0  0  0  0  0  0  0  0  0  0  0  0
   10.0712  -15.2546   27.0415 C   0  0  2  0  0  0  0  0  0  0  0  0
    8.9075  -15.3949   26.2206 N   0  0  0  0  0  0  0  0  0  0  0  0
   10.3847  -16.4746   27.8179 C   0  0  0  0  0  0  0  0  0  0  0  0
   11.6389  -16.8231   28.2745 O   0  0  0  0  0  0  0  0  0  0  0  0
    9.4376  -17.2516   28.0812 O   0  0  0  0  0  0  0  0  0  0  0  0
  2  1  1  1
  3  2  1  0
  4  3  1  0
  5  4  2  0
  6  5  1  0
  7  6  1  0
  7  8  2  0
  8  4  1  0
  9  2  1  0
 10  9  2  0
 11 12  1  0
 13 12  1  1
 13 15  1  0
 13 14  1  0
 14  9  1  0
 15 21  1  0
 16 15  2  0
 18 20  1  0
 18 19  1  1
 18 17  1  0
 20 22  1  0
 20 21  1  1
 22 24  2  0
 22 23  1  0
M  END
$$$$
