HSV.pdb
     RDKit          3D

 24 24  0  0  1  0  0  0  0  0999 V2000
   12.0554  -16.5603   19.9339 N   0  0  0  0  0  0  0  0  0  0  0  0
   12.3927  -15.6978   21.0267 C   0  0  1  0  0  0  0  0  0  0  0  0
   12.6164  -14.2687   20.5826 C   0  0  0  0  0  0  0  0  0  0  0  0
   13.8107  -14.1628   19.7034 C   0  0  0  0  0  0  0  0  0  0  0  0
   15.0660  -14.5744   20.0854 C   0  0  0  0  0  0  0  0  0  0  0  0
   15.9232  -14.3435   19.0680 N   0  0  0  0  0  0  0  0  0  0  0  0
   15.2132  -13.7984   18.0725 C   0  0  0  0  0  0  0  0  0  0  0  0
   13.9247  -13.6923   18.4700 N   0  0  0  0  0  0  0  0  0  0  0  0
   11.3679  -15.7834   22.0990 C   0  0  0  0  0  0  0  0  0  0  0  0
   10.3746  -15.0258   22.0336 O   0  0  0  0  0  0  0  0  0  0  0  0
   11.1122  -19.1365   24.4546 O   0  0  0  0  0  0  0  0  0  0  0  0
   10.0717  -18.2685   24.2346 C   0  0  0  0  0  0  0  0  0  0  0  0
   10.5155  -16.8070   24.2381 C   0  0  2  0  0  0  0  0  0  0  0  0
   11.4972  -16.6849   23.1626 N   0  0  0  0  0  0  0  0  0  0  0  0
   11.0805  -16.4000   25.5339 C   0  0  0  0  0  0  0  0  0  0  0  0
   12.3253  -16.4832   25.7983 O   0  0  0  0  0  0  0  0  0  0  0  0
   10.1524  -13.1369   27.5588 C   0  0  0  0  0  0  0  0  0  0  0  0
    9.9699  -14.3455   28.4389 C   0  0  1  0  0  0  0  0  0  0  0  0
    8.5042  -14.6088   28.5997 C   0  0  0  0  0  0  0  0  0  0  0  0
   10.7066  -15.5558   27.8768 C   0  0  2  0  0  0  0  0  0  0  0  0
   10.2591  -15.8910   26.5597 N   0  0  0  0  0  0  0  0  0  0  0  0
   10.6362  -16.6929   28.8210 C   0  0  0  0  0  0  0  0  0  0  0  0
   11.2686  -16.7465   30.0459 O   0  0  0  0  0  0  0  0  0  0  0  0
    9.9489  -17.6842   28.4819 O   0  0  0  0  0  0  0  0  0  0  0  0
  2  1  1  6
  3  2  1  0
  4  3  1  0
  5  4  2  0
  6  5  1  0
  7  6  1  0
  7  8  2  0
  8  4  1  0
  9  2  1  0
 10  9  2  0
 11 12  1  0
 13 12  1  1
 13 15  1  0
 13 14  1  0
 14  9  1  0
 15 21  1  0
 16 15  2  0
 18 20  1  0
 18 19  1  6
 18 17  1  0
 20 22  1  0
 20 21  1  6
 22 24  2  0
 22 23  1  0
M  END
$$$$
