HSV.pdb
     RDKit          3D

 24 24  0  0  1  0  0  0  0  0999 V2000
    7.5991  -16.8935   19.3293 N   0  0  0  0  0  0  0  0  0  0  0  0
    7.4897  -15.6639   20.0560 C   0  0  1  0  0  0  0  0  0  0  0  0
    6.6826  -14.6249   19.3085 C   0  0  0  0  0  0  0  0  0  0  0  0
    7.3376  -14.2613   18.0243 C   0  0  0  0  0  0  0  0  0  0  0  0
    8.3404  -13.3251   17.9290 C   0  0  0  0  0  0  0  0  0  0  0  0
    8.7173  -13.2280   16.6360 N   0  0  0  0  0  0  0  0  0  0  0  0
    7.9625  -14.0880   15.9412 C   0  0  0  0  0  0  0  0  0  0  0  0
    7.1233  -14.7140   16.7977 N   0  0  0  0  0  0  0  0  0  0  0  0
    6.9447  -15.9049   21.4170 C   0  0  0  0  0  0  0  0  0  0  0  0
    5.8205  -16.4437   21.5202 O   0  0  0  0  0  0  0  0  0  0  0  0
    7.0841  -17.9024   25.2562 O   0  0  0  0  0  0  0  0  0  0  0  0
    7.2989  -17.4229   23.9880 C   0  0  0  0  0  0  0  0  0  0  0  0
    7.2420  -15.8981   23.9193 C   0  0  2  0  0  0  0  0  0  0  0  0
    7.6605  -15.5433   22.5649 N   0  0  0  0  0  0  0  0  0  0  0  0
    8.0983  -15.2629   24.9330 C   0  0  0  0  0  0  0  0  0  0  0  0
    9.3713  -15.3294   24.8977 O   0  0  0  0  0  0  0  0  0  0  0  0
    7.1311  -11.6717   26.4456 C   0  0  0  0  0  0  0  0  0  0  0  0
    7.5214  -12.6290   27.5410 C   0  0  1  0  0  0  0  0  0  0  0  0
    6.2854  -13.0584   28.2698 C   0  0  0  0  0  0  0  0  0  0  0  0
    8.2965  -13.8185   26.9863 C   0  0  2  0  0  0  0  0  0  0  0  0
    7.5423  -14.5397   26.0072 N   0  0  0  0  0  0  0  0  0  0  0  0
    8.7909  -14.6763   28.0859 C   0  0  0  0  0  0  0  0  0  0  0  0
    9.7214  -14.2962   29.0307 O   0  0  0  0  0  0  0  0  0  0  0  0
    8.3286  -15.8382   28.1653 O   0  0  0  0  0  0  0  0  0  0  0  0
  2  1  1  6
  3  2  1  0
  4  3  1  0
  5  4  2  0
  6  5  1  0
  7  6  1  0
  7  8  2  0
  8  4  1  0
  9  2  1  0
 10  9  2  0
 11 12  1  0
 13 12  1  6
 13 15  1  0
 13 14  1  0
 14  9  1  0
 15 21  1  0
 16 15  2  0
 18 20  1  0
 18 19  1  6
 18 17  1  0
 20 22  1  0
 20 21  1  6
 22 24  2  0
 22 23  1  0
M  END
$$$$
