WGS.pdb
     RDKit          3D

 25 26  0  0  1  0  0  0  0  0999 V2000
    7.6529  -17.2035   23.7321 N   0  0  0  0  0  0  0  0  0  0  0  0
    7.2433  -16.4333   22.5895 C   0  0  1  0  0  0  0  0  0  0  0  0
    7.2003  -14.9553   22.9206 C   0  0  0  0  0  0  0  0  0  0  0  0
    7.0374  -14.7932   24.3851 C   0  0  0  0  0  0  0  0  0  0  0  0
    6.6410  -15.7604   25.2694 C   0  0  0  0  0  0  0  0  0  0  0  0
    6.6203  -15.2170   26.4958 N   0  0  0  0  0  0  0  0  0  0  0  0
    6.9898  -13.9284   26.4402 C   0  0  0  0  0  0  0  0  0  0  0  0
    7.1364  -12.9284   27.3881 C   0  0  0  0  0  0  0  0  0  0  0  0
    7.5410  -11.6605   27.0423 C   0  0  0  0  0  0  0  0  0  0  0  0
    7.7975  -11.4194   25.7049 C   0  0  0  0  0  0  0  0  0  0  0  0
    7.6594  -12.4003   24.7356 C   0  0  0  0  0  0  0  0  0  0  0  0
    7.2534  -13.6555   25.1172 C   0  0  0  0  0  0  0  0  0  0  0  0
    8.1538  -16.6861   21.4237 C   0  0  0  0  0  0  0  0  0  0  0  0
    8.0887  -16.0016   20.3765 O   0  0  0  0  0  0  0  0  0  0  0  0
    9.1451  -17.7248   21.4501 N   0  0  0  0  0  0  0  0  0  0  0  0
   10.3066  -17.6324   20.6246 C   0  0  0  0  0  0  0  0  0  0  0  0
   11.4218  -17.0099   21.3750 C   0  0  0  0  0  0  0  0  0  0  0  0
   12.5138  -16.7196   20.7818 O   0  0  0  0  0  0  0  0  0  0  0  0
   11.4464  -16.3946   25.5061 O   0  0  0  0  0  0  0  0  0  0  0  0
   12.0472  -15.4089   24.7215 C   0  0  0  0  0  0  0  0  0  0  0  0
   12.4469  -16.0591   23.4190 C   0  0  2  0  0  0  0  0  0  0  0  0
   11.3585  -16.7031   22.7565 N   0  0  0  0  0  0  0  0  0  0  0  0
   13.5271  -17.0308   23.6625 C   0  0  0  0  0  0  0  0  0  0  0  0
   14.6314  -16.6751   24.1515 O   0  0  0  0  0  0  0  0  0  0  0  0
   13.3268  -18.3633   23.3482 O   0  0  0  0  0  0  0  0  0  0  0  0
  2  1  1  1
  2 13  1  0
  3  2  1  0
  4  3  1  0
  5  4  2  0
  6  5  1  0
  7  6  1  0
  7 12  2  0
  8  9  2  0
  8  7  1  0
  9 10  1  0
 10 11  2  0
 12 11  1  0
 12  4  1  0
 13 14  2  0
 13 15  1  0
 15 16  1  0
 17 18  2  0
 17 16  1  0
 21 20  1  1
 20 19  1  0
 21 22  1  0
 22 17  1  0
 23 21  1  0
 24 23  2  0
 25 23  1  0
M  END
$$$$
