WGS.pdb
     RDKit          3D

 25 26  0  0  1  0  0  0  0  0999 V2000
    9.4016  -15.4759   21.9121 N   0  0  0  0  0  0  0  0  0  0  0  0
    9.0819  -15.9243   23.2400 C   0  0  1  0  0  0  0  0  0  0  0  0
    7.5986  -15.7838   23.5159 C   0  0  0  0  0  0  0  0  0  0  0  0
    7.2575  -14.3436   23.6000 C   0  0  0  0  0  0  0  0  0  0  0  0
    6.9633  -13.5168   22.5492 C   0  0  0  0  0  0  0  0  0  0  0  0
    6.7101  -12.2949   23.0419 N   0  0  0  0  0  0  0  0  0  0  0  0
    6.8295  -12.2979   24.3782 C   0  0  0  0  0  0  0  0  0  0  0  0
    6.6817  -11.3303   25.3589 C   0  0  0  0  0  0  0  0  0  0  0  0
    6.8700  -11.6182   26.6903 C   0  0  0  0  0  0  0  0  0  0  0  0
    7.2147  -12.9173   27.0157 C   0  0  0  0  0  0  0  0  0  0  0  0
    7.3692  -13.9051   26.0558 C   0  0  0  0  0  0  0  0  0  0  0  0
    7.1732  -13.5818   24.7356 C   0  0  0  0  0  0  0  0  0  0  0  0
    9.5235  -17.3442   23.4424 C   0  0  0  0  0  0  0  0  0  0  0  0
    9.4716  -18.1883   22.5182 O   0  0  0  0  0  0  0  0  0  0  0  0
   10.0277  -17.8062   24.7052 N   0  0  0  0  0  0  0  0  0  0  0  0
   10.3490  -19.1852   24.8909 C   0  0  0  0  0  0  0  0  0  0  0  0
   10.7352  -19.4373   26.2986 C   0  0  0  0  0  0  0  0  0  0  0  0
   10.9450  -18.4608   27.0931 O   0  0  0  0  0  0  0  0  0  0  0  0
   11.2320  -22.3956   30.0523 O   0  0  0  0  0  0  0  0  0  0  0  0
   11.0229  -22.3633   28.6726 C   0  0  0  0  0  0  0  0  0  0  0  0
   11.1418  -20.9224   28.2381 C   0  0  2  0  0  0  0  0  0  0  0  0
   10.8940  -20.7346   26.8446 N   0  0  0  0  0  0  0  0  0  0  0  0
   12.4811  -20.4121   28.5792 C   0  0  0  0  0  0  0  0  0  0  0  0
   13.4396  -20.4910   27.7667 O   0  0  0  0  0  0  0  0  0  0  0  0
   12.6930  -19.8331   29.8179 O   0  0  0  0  0  0  0  0  0  0  0  0
  2  1  1  6
  2 13  1  0
  3  2  1  0
  4  3  1  0
  5  4  2  0
  6  5  1  0
  7  6  1  0
  7 12  2  0
  8  9  2  0
  8  7  1  0
  9 10  1  0
 10 11  2  0
 12 11  1  0
 12  4  1  0
 13 14  2  0
 13 15  1  0
 15 16  1  0
 17 18  2  0
 17 16  1  0
 21 20  1  6
 20 19  1  0
 21 22  1  0
 22 17  1  0
 23 21  1  0
 24 23  2  0
 25 23  1  0
M  END
$$$$
