WGS.pdb
     RDKit          3D

 25 26  0  0  1  0  0  0  0  0999 V2000
    7.6219  -17.5154   24.8550 N   0  0  0  0  0  0  0  0  0  0  0  0
    7.2840  -16.4268   23.9789 C   0  0  1  0  0  0  0  0  0  0  0  0
    8.3191  -15.3234   24.0632 C   0  0  0  0  0  0  0  0  0  0  0  0
    8.2432  -14.6915   25.4020 C   0  0  0  0  0  0  0  0  0  0  0  0
    8.8813  -15.1155   26.5367 C   0  0  0  0  0  0  0  0  0  0  0  0
    8.5568  -14.2769   27.5323 N   0  0  0  0  0  0  0  0  0  0  0  0
    7.7289  -13.3209   27.0844 C   0  0  0  0  0  0  0  0  0  0  0  0
    7.1059  -12.2338   27.6762 C   0  0  0  0  0  0  0  0  0  0  0  0
    6.2854  -11.3947   26.9596 C   0  0  0  0  0  0  0  0  0  0  0  0
    6.1041  -11.6782   25.6182 C   0  0  0  0  0  0  0  0  0  0  0  0
    6.7146  -12.7582   25.0003 C   0  0  0  0  0  0  0  0  0  0  0  0
    7.5277  -13.5752   25.7469 C   0  0  0  0  0  0  0  0  0  0  0  0
    7.1399  -16.9075   22.5646 C   0  0  0  0  0  0  0  0  0  0  0  0
    7.5798  -18.0224   22.1998 O   0  0  0  0  0  0  0  0  0  0  0  0
    6.4906  -16.1141   21.5591 N   0  0  0  0  0  0  0  0  0  0  0  0
    6.4177  -16.5796   20.2110 C   0  0  0  0  0  0  0  0  0  0  0  0
    7.4923  -15.9656   19.3970 C   0  0  0  0  0  0  0  0  0  0  0  0
    7.7120  -16.3740   18.2080 O   0  0  0  0  0  0  0  0  0  0  0  0
    7.9873  -12.6068   19.0242 O   0  0  0  0  0  0  0  0  0  0  0  0
    9.2286  -13.0476   18.5625 C   0  0  0  0  0  0  0  0  0  0  0  0
    9.4257  -14.4499   19.0855 C   0  0  2  0  0  0  0  0  0  0  0  0
    8.3241  -14.9183   19.8636 N   0  0  0  0  0  0  0  0  0  0  0  0
   10.6617  -14.5102   19.8849 C   0  0  0  0  0  0  0  0  0  0  0  0
   10.6521  -14.9115   21.0782 O   0  0  0  0  0  0  0  0  0  0  0  0
   11.8600  -14.1182   19.3150 O   0  0  0  0  0  0  0  0  0  0  0  0
  2  1  1  1
  2 13  1  0
  3  2  1  0
  4  3  1  0
  5  4  2  0
  6  5  1  0
  7  6  1  0
  7 12  2  0
  8  9  2  0
  8  7  1  0
  9 10  1  0
 10 11  2  0
 12 11  1  0
 12  4  1  0
 13 14  2  0
 13 15  1  0
 15 16  1  0
 17 18  2  0
 17 16  1  0
 21 20  1  1
 20 19  1  0
 21 22  1  0
 22 17  1  0
 23 21  1  0
 24 23  2  0
 25 23  1  0
M  END
$$$$
