WGS.pdb
     RDKit          3D

 25 26  0  0  1  0  0  0  0  0999 V2000
    8.3712  -17.4126   24.7304 N   0  0  0  0  0  0  0  0  0  0  0  0
    7.9808  -16.8342   23.4735 C   0  0  1  0  0  0  0  0  0  0  0  0
    8.1099  -15.3249   23.5092 C   0  0  0  0  0  0  0  0  0  0  0  0
    7.3834  -14.8061   24.6928 C   0  0  0  0  0  0  0  0  0  0  0  0
    6.4144  -15.4633   25.4024 C   0  0  0  0  0  0  0  0  0  0  0  0
    6.0105  -14.6577   26.3962 N   0  0  0  0  0  0  0  0  0  0  0  0
    6.6838  -13.4979   26.3580 C   0  0  0  0  0  0  0  0  0  0  0  0
    6.6607  -12.3469   27.1290 C   0  0  0  0  0  0  0  0  0  0  0  0
    7.4833  -11.2793   26.8560 C   0  0  0  0  0  0  0  0  0  0  0  0
    8.3395  -11.3982   25.7765 C   0  0  0  0  0  0  0  0  0  0  0  0
    8.3839  -12.5373   24.9883 C   0  0  0  0  0  0  0  0  0  0  0  0
    7.5481  -13.5843   25.2903 C   0  0  0  0  0  0  0  0  0  0  0  0
    8.7940  -17.4064   22.3495 C   0  0  0  0  0  0  0  0  0  0  0  0
    8.7138  -16.9564   21.1830 O   0  0  0  0  0  0  0  0  0  0  0  0
    9.7045  -18.4977   22.5546 N   0  0  0  0  0  0  0  0  0  0  0  0
   10.4185  -19.0565   21.4512 C   0  0  0  0  0  0  0  0  0  0  0  0
   11.8768  -18.8769   21.6394 C   0  0  0  0  0  0  0  0  0  0  0  0
   12.6987  -19.3457   20.7830 O   0  0  0  0  0  0  0  0  0  0  0  0
   13.8576  -15.1177   21.4589 O   0  0  0  0  0  0  0  0  0  0  0  0
   12.8061  -15.9961   21.7253 C   0  0  0  0  0  0  0  0  0  0  0  0
   13.3684  -17.1250   22.5550 C   0  0  2  0  0  0  0  0  0  0  0  0
   12.4438  -18.1962   22.7447 N   0  0  0  0  0  0  0  0  0  0  0  0
   13.8059  -16.6069   23.8629 C   0  0  0  0  0  0  0  0  0  0  0  0
   13.1923  -16.8993   24.9228 O   0  0  0  0  0  0  0  0  0  0  0  0
   14.9141  -15.7813   23.9312 O   0  0  0  0  0  0  0  0  0  0  0  0
  2  1  1  1
  2 13  1  0
  3  2  1  0
  4  3  1  0
  5  4  2  0
  6  5  1  0
  7  6  1  0
  7 12  2  0
  8  9  2  0
  8  7  1  0
  9 10  1  0
 10 11  2  0
 12 11  1  0
 12  4  1  0
 13 14  2  0
 13 15  1  0
 15 16  1  0
 17 18  2  0
 17 16  1  0
 21 20  1  6
 20 19  1  0
 21 22  1  0
 22 17  1  0
 23 21  1  0
 24 23  2  0
 25 23  1  0
M  END
$$$$
