WGS.pdb
     RDKit          3D

 25 26  0  0  1  0  0  0  0  0999 V2000
    7.9824  -16.2575   22.7838 N   0  0  0  0  0  0  0  0  0  0  0  0
    8.9090  -15.4065   23.4794 C   0  0  1  0  0  0  0  0  0  0  0  0
    8.8692  -15.6690   24.9713 C   0  0  0  0  0  0  0  0  0  0  0  0
    7.6293  -15.0810   25.5320 C   0  0  0  0  0  0  0  0  0  0  0  0
    6.4735  -15.7533   25.8260 C   0  0  0  0  0  0  0  0  0  0  0  0
    5.5918  -14.8677   26.3139 N   0  0  0  0  0  0  0  0  0  0  0  0
    6.1343  -13.6411   26.3477 C   0  0  0  0  0  0  0  0  0  0  0  0
    5.6747  -12.3972   26.7493 C   0  0  0  0  0  0  0  0  0  0  0  0
    6.4672  -11.2760   26.6720 C   0  0  0  0  0  0  0  0  0  0  0  0
    7.7477  -11.4376   26.1752 C   0  0  0  0  0  0  0  0  0  0  0  0
    8.2336  -12.6695   25.7664 C   0  0  0  0  0  0  0  0  0  0  0  0
    7.4143  -13.7678   25.8579 C   0  0  0  0  0  0  0  0  0  0  0  0
   10.3007  -15.5899   22.9488 C   0  0  0  0  0  0  0  0  0  0  0  0
   11.2866  -15.0251   23.4766 O   0  0  0  0  0  0  0  0  0  0  0  0
   10.5720  -16.4218   21.8102 N   0  0  0  0  0  0  0  0  0  0  0  0
   11.8956  -16.5085   21.2811 C   0  0  0  0  0  0  0  0  0  0  0  0
   12.5782  -17.7160   21.8009 C   0  0  0  0  0  0  0  0  0  0  0  0
   12.4895  -18.0238   23.0363 O   0  0  0  0  0  0  0  0  0  0  0  0
   14.3576  -20.3336   19.2952 O   0  0  0  0  0  0  0  0  0  0  0  0
   13.9761  -20.9060   20.5097 C   0  0  0  0  0  0  0  0  0  0  0  0
   13.9022  -19.7903   21.5240 C   0  0  2  0  0  0  0  0  0  0  0  0
   13.3515  -18.5850   20.9926 N   0  0  0  0  0  0  0  0  0  0  0  0
   15.2458  -19.5268   22.0679 C   0  0  0  0  0  0  0  0  0  0  0  0
   15.8208  -18.4213   21.8885 O   0  0  0  0  0  0  0  0  0  0  0  0
   15.8919  -20.5133   22.7916 O   0  0  0  0  0  0  0  0  0  0  0  0
  2  1  1  6
  2 13  1  0
  3  2  1  0
  4  3  1  0
  5  4  2  0
  6  5  1  0
  7  6  1  0
  7 12  2  0
  8  9  2  0
  8  7  1  0
  9 10  1  0
 10 11  2  0
 12 11  1  0
 12  4  1  0
 13 14  2  0
 13 15  1  0
 15 16  1  0
 17 18  2  0
 17 16  1  0
 21 20  1  6
 20 19  1  0
 21 22  1  0
 22 17  1  0
 23 21  1  0
 24 23  2  0
 25 23  1  0
M  END
$$$$
