WGS.pdb
     RDKit          3D

 25 26  0  0  1  0  0  0  0  0999 V2000
    7.0540  -17.3986   23.9942 N   0  0  0  0  0  0  0  0  0  0  0  0
    7.3209  -16.1528   23.3283 C   0  0  1  0  0  0  0  0  0  0  0  0
    8.3923  -15.3681   24.0581 C   0  0  0  0  0  0  0  0  0  0  0  0
    7.8573  -14.9226   25.3669 C   0  0  0  0  0  0  0  0  0  0  0  0
    7.5449  -15.7250   26.4313 C   0  0  0  0  0  0  0  0  0  0  0  0
    7.0943  -14.9414   27.4226 N   0  0  0  0  0  0  0  0  0  0  0  0
    7.1026  -13.6555   27.0398 C   0  0  0  0  0  0  0  0  0  0  0  0
    6.7488  -12.4663   27.6567 C   0  0  0  0  0  0  0  0  0  0  0  0
    6.8626  -11.2574   27.0115 C   0  0  0  0  0  0  0  0  0  0  0  0
    7.3462  -11.2730   25.7159 C   0  0  0  0  0  0  0  0  0  0  0  0
    7.7077  -12.4472   25.0744 C   0  0  0  0  0  0  0  0  0  0  0  0
    7.5808  -13.6364   25.7494 C   0  0  0  0  0  0  0  0  0  0  0  0
    7.7198  -16.3877   21.9008 C   0  0  0  0  0  0  0  0  0  0  0  0
    7.9236  -15.4385   21.1091 O   0  0  0  0  0  0  0  0  0  0  0  0
    7.8880  -17.7119   21.3711 N   0  0  0  0  0  0  0  0  0  0  0  0
    8.1874  -17.9010   19.9877 C   0  0  0  0  0  0  0  0  0  0  0  0
    9.6346  -17.7002   19.7435 C   0  0  0  0  0  0  0  0  0  0  0  0
   10.1188  -17.8645   18.5741 O   0  0  0  0  0  0  0  0  0  0  0  0
   12.3644  -15.5667   21.9558 O   0  0  0  0  0  0  0  0  0  0  0  0
   12.6310  -16.0274   20.6655 C   0  0  0  0  0  0  0  0  0  0  0  0
   11.9612  -17.3731   20.5261 C   0  0  2  0  0  0  0  0  0  0  0  0
   10.5527  -17.3248   20.7547 N   0  0  0  0  0  0  0  0  0  0  0  0
   12.5838  -18.3337   21.4535 C   0  0  0  0  0  0  0  0  0  0  0  0
   11.9162  -18.8974   22.3599 O   0  0  0  0  0  0  0  0  0  0  0  0
   13.9307  -18.6246   21.3281 O   0  0  0  0  0  0  0  0  0  0  0  0
  2  1  1  1
  2 13  1  0
  3  2  1  0
  4  3  1  0
  5  4  2  0
  6  5  1  0
  7  6  1  0
  7 12  2  0
  8  9  2  0
  8  7  1  0
  9 10  1  0
 10 11  2  0
 12 11  1  0
 12  4  1  0
 13 14  2  0
 13 15  1  0
 15 16  1  0
 17 18  2  0
 17 16  1  0
 21 20  1  1
 20 19  1  0
 21 22  1  0
 22 17  1  0
 23 21  1  0
 24 23  2  0
 25 23  1  0
M  END
$$$$
