WGS.pdb
     RDKit          3D

 25 26  0  0  1  0  0  0  0  0999 V2000
    7.8621  -17.1616   23.2631 N   0  0  0  0  0  0  0  0  0  0  0  0
    7.4629  -16.4672   22.0693 C   0  0  1  0  0  0  0  0  0  0  0  0
    6.9319  -15.0868   22.3985 C   0  0  0  0  0  0  0  0  0  0  0  0
    6.7330  -14.9828   23.8638 C   0  0  0  0  0  0  0  0  0  0  0  0
    6.2335  -15.9570   24.6860 C   0  0  0  0  0  0  0  0  0  0  0  0
    6.2137  -15.4731   25.9370 N   0  0  0  0  0  0  0  0  0  0  0  0
    6.6834  -14.2166   25.9576 C   0  0  0  0  0  0  0  0  0  0  0  0
    6.8749  -13.2779   26.9587 C   0  0  0  0  0  0  0  0  0  0  0  0
    7.3876  -12.0307   26.6895 C   0  0  0  0  0  0  0  0  0  0  0  0
    7.7067  -11.7466   25.3742 C   0  0  0  0  0  0  0  0  0  0  0  0
    7.5259  -12.6659   24.3530 C   0  0  0  0  0  0  0  0  0  0  0  0
    7.0115  -13.9021   24.6585 C   0  0  0  0  0  0  0  0  0  0  0  0
    8.6053  -16.3753   21.1005 C   0  0  0  0  0  0  0  0  0  0  0  0
    8.5239  -15.7004   20.0482 O   0  0  0  0  0  0  0  0  0  0  0  0
    9.8486  -17.0560   21.3311 N   0  0  0  0  0  0  0  0  0  0  0  0
   11.0887  -16.3973   21.0714 C   0  0  0  0  0  0  0  0  0  0  0  0
   11.8905  -16.3039   22.3135 C   0  0  0  0  0  0  0  0  0  0  0  0
   13.0377  -15.7448   22.2984 O   0  0  0  0  0  0  0  0  0  0  0  0
   10.3653  -17.5302   25.7787 O   0  0  0  0  0  0  0  0  0  0  0  0
   11.5215  -16.7843   26.0137 C   0  0  0  0  0  0  0  0  0  0  0  0
   12.2940  -16.7404   24.7175 C   0  0  2  0  0  0  0  0  0  0  0  0
   11.4569  -16.8108   23.5631 N   0  0  0  0  0  0  0  0  0  0  0  0
   13.2751  -17.8390   24.6892 C   0  0  0  0  0  0  0  0  0  0  0  0
   13.2706  -18.6989   23.7696 O   0  0  0  0  0  0  0  0  0  0  0  0
   14.2228  -17.9304   25.6932 O   0  0  0  0  0  0  0  0  0  0  0  0
  2  1  1  1
  2 13  1  0
  3  2  1  0
  4  3  1  0
  5  4  2  0
  6  5  1  0
  7  6  1  0
  7 12  2  0
  8  9  2  0
  8  7  1  0
  9 10  1  0
 10 11  2  0
 12 11  1  0
 12  4  1  0
 13 14  2  0
 13 15  1  0
 15 16  1  0
 17 18  2  0
 17 16  1  0
 21 20  1  1
 20 19  1  0
 21 22  1  0
 22 17  1  0
 23 21  1  0
 24 23  2  0
 25 23  1  0
M  END
$$$$
