WGS.pdb
     RDKit          3D

 25 26  0  0  1  0  0  0  0  0999 V2000
    9.4551  -15.7855   21.9473 N   0  0  0  0  0  0  0  0  0  0  0  0
    8.9121  -16.1214   23.2353 C   0  0  1  0  0  0  0  0  0  0  0  0
    7.4476  -15.7420   23.3206 C   0  0  0  0  0  0  0  0  0  0  0  0
    7.3326  -14.2642   23.3472 C   0  0  0  0  0  0  0  0  0  0  0  0
    7.4700  -13.4204   22.2780 C   0  0  0  0  0  0  0  0  0  0  0  0
    7.2929  -12.1647   22.7158 N   0  0  0  0  0  0  0  0  0  0  0  0
    7.0448  -12.1622   24.0343 C   0  0  0  0  0  0  0  0  0  0  0  0
    6.7950  -11.1654   24.9638 C   0  0  0  0  0  0  0  0  0  0  0  0
    6.5678  -11.4551   26.2887 C   0  0  0  0  0  0  0  0  0  0  0  0
    6.5984  -12.7867   26.6609 C   0  0  0  0  0  0  0  0  0  0  0  0
    6.8457  -13.8041   25.7528 C   0  0  0  0  0  0  0  0  0  0  0  0
    7.0681  -13.4779   24.4375 C   0  0  0  0  0  0  0  0  0  0  0  0
    9.0959  -17.5823   23.5253 C   0  0  0  0  0  0  0  0  0  0  0  0
    9.3509  -18.4071   22.6174 O   0  0  0  0  0  0  0  0  0  0  0  0
    8.9889  -18.1079   24.8574 N   0  0  0  0  0  0  0  0  0  0  0  0
    9.7654  -19.2406   25.2488 C   0  0  0  0  0  0  0  0  0  0  0  0
   10.8247  -18.8329   26.2006 C   0  0  0  0  0  0  0  0  0  0  0  0
   11.9339  -18.3715   25.7699 O   0  0  0  0  0  0  0  0  0  0  0  0
   10.4399  -19.5364   30.1953 O   0  0  0  0  0  0  0  0  0  0  0  0
   11.4299  -18.5916   29.9205 C   0  0  0  0  0  0  0  0  0  0  0  0
   11.8133  -18.7578   28.4698 C   0  0  2  0  0  0  0  0  0  0  0  0
   10.6874  -18.9229   27.6076 N   0  0  0  0  0  0  0  0  0  0  0  0
   12.7228  -19.9080   28.3275 C   0  0  0  0  0  0  0  0  0  0  0  0
   12.4226  -20.8964   27.6077 O   0  0  0  0  0  0  0  0  0  0  0  0
   13.9332  -19.9049   28.9979 O   0  0  0  0  0  0  0  0  0  0  0  0
  2  1  1  6
  2 13  1  0
  3  2  1  0
  4  3  1  0
  5  4  2  0
  6  5  1  0
  7  6  1  0
  7 12  2  0
  8  9  2  0
  8  7  1  0
  9 10  1  0
 10 11  2  0
 12 11  1  0
 12  4  1  0
 13 14  2  0
 13 15  1  0
 15 16  1  0
 17 18  2  0
 17 16  1  0
 21 20  1  1
 20 19  1  0
 21 22  1  0
 22 17  1  0
 23 21  1  0
 24 23  2  0
 25 23  1  0
M  END
$$$$
