FMP.pdb
     RDKit          3D

 27 28  0  0  1  0  0  0  0  0999 V2000
    6.7832  -16.1031   27.5023 N   0  0  0  0  0  0  0  0  0  0  0  0
    6.3929  -15.9674   26.1140 C   0  0  1  0  0  0  0  0  0  0  0  0
    5.2295  -15.0228   26.0290 C   0  0  0  0  0  0  0  0  0  0  0  0
    5.5423  -13.6506   26.4036 C   0  0  0  0  0  0  0  0  0  0  0  0
    5.5054  -13.3078   27.7602 C   0  0  0  0  0  0  0  0  0  0  0  0
    5.8006  -12.0066   28.1201 C   0  0  0  0  0  0  0  0  0  0  0  0
    6.1273  -11.0506   27.1761 C   0  0  0  0  0  0  0  0  0  0  0  0
    6.1570  -11.4174   25.8326 C   0  0  0  0  0  0  0  0  0  0  0  0
    5.8660  -12.7101   25.4492 C   0  0  0  0  0  0  0  0  0  0  0  0
    7.5742  -15.3834   25.3754 C   0  0  0  0  0  0  0  0  0  0  0  0
    8.3629  -14.5954   25.9540 O   0  0  0  0  0  0  0  0  0  0  0  0
   11.2623  -15.2401   27.7739 C   0  0  0  0  0  0  0  0  0  0  0  0
   11.8469  -15.3767   26.0833 S   0  0  0  0  0  0  0  0  0  0  0  0
   10.7146  -14.5353   24.9270 C   0  0  0  0  0  0  0  0  0  0  0  0
   10.2470  -15.5879   23.9403 C   0  0  0  0  0  0  0  0  0  0  0  0
    8.9447  -15.1925   23.2879 C   0  0  2  0  0  0  0  0  0  0  0  0
    7.8094  -15.7150   24.0226 N   0  0  0  0  0  0  0  0  0  0  0  0
    8.8525  -15.6543   21.8816 C   0  0  0  0  0  0  0  0  0  0  0  0
    8.6313  -16.8832   21.6146 O   0  0  0  0  0  0  0  0  0  0  0  0
    8.9956  -14.7983   20.7478 N   0  0  0  0  0  0  0  0  0  0  0  0
    9.5442  -13.4595   20.7093 C   0  0  0  0  0  0  0  0  0  0  0  0
    8.6904  -12.7575   19.6572 C   0  0  0  0  0  0  0  0  0  0  0  0
    7.9046  -13.8452   18.9579 C   0  0  0  0  0  0  0  0  0  0  0  0
    8.6201  -15.1097   19.3780 C   0  0  1  0  0  0  0  0  0  0  0  0
    9.8190  -15.3607   18.5452 C   0  0  0  0  0  0  0  0  0  0  0  0
    9.7573  -15.6833   17.3488 O   0  0  0  0  0  0  0  0  0  0  0  0
   11.0787  -15.2333   19.1152 O   0  0  0  0  0  0  0  0  0  0  0  0
  2  1  1  1
  3  2  1  0
  4  9  1  0
  4  3  1  0
  5  4  2  0
  6  7  2  0
  6  5  1  0
  7  8  1  0
  8  9  2  0
 10 17  1  0
 10  2  1  0
 11 10  2  0
 13 12  1  0
 14 13  1  0
 15 14  1  0
 16 15  1  1
 16 17  1  0
 18 19  2  0
 18 16  1  0
 20 18  1  0
 21 20  1  0
 22 21  1  0
 23 22  1  0
 24 23  1  0
 24 20  1  0
 24 25  1  6
 26 25  2  0
 27 25  1  0
M  END
$$$$
