FMP.pdb
     RDKit          3D

 27 28  0  0  1  0  0  0  0  0999 V2000
    9.1424  -15.8201   21.3224 N   0  0  0  0  0  0  0  0  0  0  0  0
    8.8690  -15.0954   22.5464 C   0  0  1  0  0  0  0  0  0  0  0  0
    7.4022  -15.1941   22.8493 C   0  0  0  0  0  0  0  0  0  0  0  0
    6.9531  -14.3271   23.9299 C   0  0  0  0  0  0  0  0  0  0  0  0
    6.4883  -14.9216   25.1087 C   0  0  0  0  0  0  0  0  0  0  0  0
    6.0604  -14.1027   26.1363 C   0  0  0  0  0  0  0  0  0  0  0  0
    6.0832  -12.7250   26.0217 C   0  0  0  0  0  0  0  0  0  0  0  0
    6.5504  -12.1582   24.8381 C   0  0  0  0  0  0  0  0  0  0  0  0
    6.9828  -12.9552   23.7985 C   0  0  0  0  0  0  0  0  0  0  0  0
    9.6592  -15.7658   23.6456 C   0  0  0  0  0  0  0  0  0  0  0  0
   10.3442  -16.7909   23.4054 O   0  0  0  0  0  0  0  0  0  0  0  0
   11.9809  -14.6044   29.7920 C   0  0  0  0  0  0  0  0  0  0  0  0
   10.9435  -13.3315   29.0694 S   0  0  0  0  0  0  0  0  0  0  0  0
   10.4881  -13.7512   27.3537 C   0  0  0  0  0  0  0  0  0  0  0  0
   10.0676  -15.2082   27.3643 C   0  0  0  0  0  0  0  0  0  0  0  0
   10.3667  -15.8782   26.0454 C   0  0  2  0  0  0  0  0  0  0  0  0
    9.6393  -15.2496   24.9603 N   0  0  0  0  0  0  0  0  0  0  0  0
   10.0416  -17.3252   26.0584 C   0  0  0  0  0  0  0  0  0  0  0  0
    8.8527  -17.7260   25.8216 O   0  0  0  0  0  0  0  0  0  0  0  0
   10.9928  -18.3561   26.3250 N   0  0  0  0  0  0  0  0  0  0  0  0
   12.3885  -18.2071   26.6781 C   0  0  0  0  0  0  0  0  0  0  0  0
   13.0571  -19.3909   25.9849 C   0  0  0  0  0  0  0  0  0  0  0  0
   11.9366  -20.2995   25.5284 C   0  0  0  0  0  0  0  0  0  0  0  0
   10.7427  -19.7883   26.3032 C   0  0  1  0  0  0  0  0  0  0  0  0
   10.7072  -20.3397   27.6775 C   0  0  0  0  0  0  0  0  0  0  0  0
   10.9676  -19.6644   28.6852 O   0  0  0  0  0  0  0  0  0  0  0  0
   10.3685  -21.6732   27.8641 O   0  0  0  0  0  0  0  0  0  0  0  0
  2  1  1  6
  3  2  1  0
  4  9  1  0
  4  3  1  0
  5  4  2  0
  6  7  2  0
  6  5  1  0
  7  8  1  0
  8  9  2  0
 10 17  1  0
 10  2  1  0
 11 10  2  0
 13 12  1  0
 14 13  1  0
 15 14  1  0
 16 15  1  1
 16 17  1  0
 18 19  2  0
 18 16  1  0
 20 18  1  0
 21 20  1  0
 22 21  1  0
 23 22  1  0
 24 23  1  0
 24 20  1  0
 24 25  1  1
 26 25  2  0
 27 25  1  0
M  END
$$$$
