FMP.pdb
     RDKit          3D

 27 28  0  0  1  0  0  0  0  0999 V2000
    5.0005  -16.1542   20.8285 N   0  0  0  0  0  0  0  0  0  0  0  0
    6.3547  -16.6256   21.0331 C   0  0  1  0  0  0  0  0  0  0  0  0
    7.1361  -16.4152   19.7690 C   0  0  0  0  0  0  0  0  0  0  0  0
    7.4151  -15.0193   19.4613 C   0  0  0  0  0  0  0  0  0  0  0  0
    6.9693  -14.0401   20.3566 C   0  0  0  0  0  0  0  0  0  0  0  0
    7.2311  -12.7142   20.0683 C   0  0  0  0  0  0  0  0  0  0  0  0
    7.9165  -12.3432   18.9262 C   0  0  0  0  0  0  0  0  0  0  0  0
    8.3495  -13.3370   18.0514 C   0  0  0  0  0  0  0  0  0  0  0  0
    8.0999  -14.6672   18.3179 C   0  0  0  0  0  0  0  0  0  0  0  0
    6.9525  -15.7922   22.1423 C   0  0  0  0  0  0  0  0  0  0  0  0
    7.3098  -14.6071   21.9289 O   0  0  0  0  0  0  0  0  0  0  0  0
    6.9781  -11.2587   26.9337 C   0  0  0  0  0  0  0  0  0  0  0  0
    6.6171  -12.9830   27.2729 S   0  0  0  0  0  0  0  0  0  0  0  0
    7.7860  -14.0816   26.4045 C   0  0  0  0  0  0  0  0  0  0  0  0
    7.0095  -14.7282   25.2736 C   0  0  0  0  0  0  0  0  0  0  0  0
    7.8836  -15.6540   24.4631 C   0  0  2  0  0  0  0  0  0  0  0  0
    7.1184  -16.3336   23.4364 N   0  0  0  0  0  0  0  0  0  0  0  0
    8.5609  -16.6724   25.3019 C   0  0  0  0  0  0  0  0  0  0  0  0
    7.9105  -17.6680   25.7668 O   0  0  0  0  0  0  0  0  0  0  0  0
    9.9455  -16.6311   25.6480 N   0  0  0  0  0  0  0  0  0  0  0  0
   10.8290  -15.4847   25.6406 C   0  0  0  0  0  0  0  0  0  0  0  0
   12.1653  -16.0709   25.1941 C   0  0  0  0  0  0  0  0  0  0  0  0
   12.0111  -17.5744   25.2664 C   0  0  0  0  0  0  0  0  0  0  0  0
   10.7579  -17.7516   26.0940 C   0  0  1  0  0  0  0  0  0  0  0  0
   11.0431  -17.6535   27.5442 C   0  0  0  0  0  0  0  0  0  0  0  0
   10.7404  -16.6641   28.2287 O   0  0  0  0  0  0  0  0  0  0  0  0
   11.6787  -18.7101   28.1827 O   0  0  0  0  0  0  0  0  0  0  0  0
  2  1  1  6
  3  2  1  0
  4  9  1  0
  4  3  1  0
  5  4  2  0
  6  7  2  0
  6  5  1  0
  7  8  1  0
  8  9  2  0
 10 17  1  0
 10  2  1  0
 11 10  2  0
 13 12  1  0
 14 13  1  0
 15 14  1  0
 16 15  1  1
 16 17  1  0
 18 19  2  0
 18 16  1  0
 20 18  1  0
 21 20  1  0
 22 21  1  0
 23 22  1  0
 24 23  1  0
 24 20  1  0
 24 25  1  1
 26 25  2  0
 27 25  1  0
M  END
$$$$
