FMP.pdb
     RDKit          3D

 27 28  0  0  1  0  0  0  0  0999 V2000
    4.4699  -19.9164   24.8533 N   0  0  0  0  0  0  0  0  0  0  0  0
    5.7487  -19.5229   24.2985 C   0  0  1  0  0  0  0  0  0  0  0  0
    5.8199  -19.9854   22.8724 C   0  0  0  0  0  0  0  0  0  0  0  0
    4.7676  -19.4552   22.0164 C   0  0  0  0  0  0  0  0  0  0  0  0
    3.4817  -19.9956   22.1329 C   0  0  0  0  0  0  0  0  0  0  0  0
    2.4803  -19.4961   21.3220 C   0  0  0  0  0  0  0  0  0  0  0  0
    2.7234  -18.4856   20.4102 C   0  0  0  0  0  0  0  0  0  0  0  0
    4.0118  -17.9649   20.3138 C   0  0  0  0  0  0  0  0  0  0  0  0
    5.0277  -18.4474   21.1126 C   0  0  0  0  0  0  0  0  0  0  0  0
    5.8079  -18.0141   24.3449 C   0  0  0  0  0  0  0  0  0  0  0  0
    4.7546  -17.3319   24.2901 O   0  0  0  0  0  0  0  0  0  0  0  0
    6.5911  -12.3971   27.4828 C   0  0  0  0  0  0  0  0  0  0  0  0
    8.1021  -12.8353   26.6206 S   0  0  0  0  0  0  0  0  0  0  0  0
    7.7378  -13.6737   25.0422 C   0  0  0  0  0  0  0  0  0  0  0  0
    7.4811  -15.1302   25.3778 C   0  0  0  0  0  0  0  0  0  0  0  0
    7.1966  -15.9404   24.1366 C   0  0  2  0  0  0  0  0  0  0  0  0
    7.0490  -17.3480   24.4507 N   0  0  0  0  0  0  0  0  0  0  0  0
    8.2554  -15.7926   23.1087 C   0  0  0  0  0  0  0  0  0  0  0  0
    9.1130  -16.7199   22.9214 O   0  0  0  0  0  0  0  0  0  0  0  0
    8.4016  -14.6461   22.2703 N   0  0  0  0  0  0  0  0  0  0  0  0
    7.8970  -13.3089   22.4984 C   0  0  0  0  0  0  0  0  0  0  0  0
    7.5263  -12.8272   21.0987 C   0  0  0  0  0  0  0  0  0  0  0  0
    8.1288  -13.8269   20.1357 C   0  0  0  0  0  0  0  0  0  0  0  0
    9.1075  -14.5895   21.0003 C   0  0  1  0  0  0  0  0  0  0  0  0
   10.3914  -13.8645   21.1411 C   0  0  0  0  0  0  0  0  0  0  0  0
   11.1497  -13.6378   20.1856 O   0  0  0  0  0  0  0  0  0  0  0  0
   10.7794  -13.4106   22.3946 O   0  0  0  0  0  0  0  0  0  0  0  0
  2  1  1  6
  3  2  1  0
  4  9  1  0
  4  3  1  0
  5  4  2  0
  6  7  2  0
  6  5  1  0
  7  8  1  0
  8  9  2  0
 10 17  1  0
 10  2  1  0
 11 10  2  0
 13 12  1  0
 14 13  1  0
 15 14  1  0
 16 15  1  1
 16 17  1  0
 18 19  2  0
 18 16  1  0
 20 18  1  0
 21 20  1  0
 22 21  1  0
 23 22  1  0
 24 23  1  0
 24 20  1  0
 24 25  1  1
 26 25  2  0
 27 25  1  0
M  END
$$$$
