FMP.pdb
     RDKit          3D

 27 28  0  0  1  0  0  0  0  0999 V2000
    7.1865  -17.3405   20.8508 N   0  0  0  0  0  0  0  0  0  0  0  0
    7.4378  -16.0026   21.3458 C   0  0  1  0  0  0  0  0  0  0  0  0
    6.5255  -15.0452   20.6361 C   0  0  0  0  0  0  0  0  0  0  0  0
    7.2063  -14.1182   19.7425 C   0  0  0  0  0  0  0  0  0  0  0  0
    7.5041  -12.8357   20.2176 C   0  0  0  0  0  0  0  0  0  0  0  0
    8.1493  -11.9526   19.3728 C   0  0  0  0  0  0  0  0  0  0  0  0
    8.5009  -12.3092   18.0840 C   0  0  0  0  0  0  0  0  0  0  0  0
    8.1932  -13.5916   17.6355 C   0  0  0  0  0  0  0  0  0  0  0  0
    7.5496  -14.4905   18.4604 C   0  0  0  0  0  0  0  0  0  0  0  0
    7.1172  -16.0075   22.8220 C   0  0  0  0  0  0  0  0  0  0  0  0
    5.9515  -15.7664   23.2230 O   0  0  0  0  0  0  0  0  0  0  0  0
    5.8857  -11.5615   26.9142 C   0  0  0  0  0  0  0  0  0  0  0  0
    6.2669  -13.2338   27.4402 S   0  0  0  0  0  0  0  0  0  0  0  0
    7.7917  -13.8409   26.6442 C   0  0  0  0  0  0  0  0  0  0  0  0
    7.3537  -14.7602   25.5204 C   0  0  0  0  0  0  0  0  0  0  0  0
    8.5383  -15.3067   24.7615 C   0  0  2  0  0  0  0  0  0  0  0  0
    8.1239  -16.2835   23.7737 N   0  0  0  0  0  0  0  0  0  0  0  0
    9.5434  -15.9326   25.6545 C   0  0  0  0  0  0  0  0  0  0  0  0
   10.1880  -16.9696   25.2810 O   0  0  0  0  0  0  0  0  0  0  0  0
    9.8667  -15.4483   26.9581 N   0  0  0  0  0  0  0  0  0  0  0  0
    9.2043  -14.4011   27.7061 C   0  0  0  0  0  0  0  0  0  0  0  0
   10.3487  -13.7208   28.4518 C   0  0  0  0  0  0  0  0  0  0  0  0
   11.5497  -14.6284   28.2989 C   0  0  0  0  0  0  0  0  0  0  0  0
   10.9406  -15.9252   27.8147 C   0  0  1  0  0  0  0  0  0  0  0  0
   10.4040  -16.7288   28.9374 C   0  0  0  0  0  0  0  0  0  0  0  0
   11.1274  -17.3146   29.7575 O   0  0  0  0  0  0  0  0  0  0  0  0
    9.0289  -16.8418   29.0932 O   0  0  0  0  0  0  0  0  0  0  0  0
  2  1  1  6
  3  2  1  0
  4  9  1  0
  4  3  1  0
  5  4  2  0
  6  7  2  0
  6  5  1  0
  7  8  1  0
  8  9  2  0
 10 17  1  0
 10  2  1  0
 11 10  2  0
 13 12  1  0
 14 13  1  0
 15 14  1  0
 16 15  1  1
 16 17  1  0
 18 19  2  0
 18 16  1  0
 20 18  1  0
 21 20  1  0
 22 21  1  0
 23 22  1  0
 24 23  1  0
 24 20  1  0
 24 25  1  1
 26 25  2  0
 27 25  1  0
M  END
$$$$
