FMP.pdb
     RDKit          3D

 27 28  0  0  1  0  0  0  0  0999 V2000
    5.6402  -17.5248   25.5383 N   0  0  0  0  0  0  0  0  0  0  0  0
    6.3690  -16.3047   25.2584 C   0  0  1  0  0  0  0  0  0  0  0  0
    7.1064  -15.8870   26.4971 C   0  0  0  0  0  0  0  0  0  0  0  0
    7.2744  -14.4472   26.6386 C   0  0  0  0  0  0  0  0  0  0  0  0
    6.1359  -13.6360   26.5698 C   0  0  0  0  0  0  0  0  0  0  0  0
    6.2907  -12.2692   26.7027 C   0  0  0  0  0  0  0  0  0  0  0  0
    7.5339  -11.6970   26.8998 C   0  0  0  0  0  0  0  0  0  0  0  0
    8.6512  -12.5265   26.9646 C   0  0  0  0  0  0  0  0  0  0  0  0
    8.5215  -13.8937   26.8347 C   0  0  0  0  0  0  0  0  0  0  0  0
    7.3591  -16.6201   24.1619 C   0  0  0  0  0  0  0  0  0  0  0  0
    7.8525  -17.7706   24.0587 O   0  0  0  0  0  0  0  0  0  0  0  0
    6.4029  -12.5543   18.5833 C   0  0  0  0  0  0  0  0  0  0  0  0
    7.8960  -13.0001   19.4725 S   0  0  0  0  0  0  0  0  0  0  0  0
    7.6249  -14.4727   20.5142 C   0  0  0  0  0  0  0  0  0  0  0  0
    8.9027  -14.6826   21.3035 C   0  0  0  0  0  0  0  0  0  0  0  0
    8.7814  -15.8532   22.2484 C   0  0  2  0  0  0  0  0  0  0  0  0
    7.7449  -15.6254   23.2361 N   0  0  0  0  0  0  0  0  0  0  0  0
   10.0526  -16.1457   22.9541 C   0  0  0  0  0  0  0  0  0  0  0  0
   10.2477  -15.7232   24.1431 O   0  0  0  0  0  0  0  0  0  0  0  0
   11.1266  -16.8974   22.3883 N   0  0  0  0  0  0  0  0  0  0  0  0
   11.1535  -17.5894   21.1173 C   0  0  0  0  0  0  0  0  0  0  0  0
   11.9951  -18.8289   21.4072 C   0  0  0  0  0  0  0  0  0  0  0  0
   12.6358  -18.5968   22.7582 C   0  0  0  0  0  0  0  0  0  0  0  0
   12.4356  -17.1147   22.9829 C   0  0  1  0  0  0  0  0  0  0  0  0
   13.4706  -16.3130   22.2901 C   0  0  0  0  0  0  0  0  0  0  0  0
   13.3124  -15.8383   21.1548 O   0  0  0  0  0  0  0  0  0  0  0  0
   14.6805  -16.0722   22.9274 O   0  0  0  0  0  0  0  0  0  0  0  0
  2  1  1  1
  3  2  1  0
  4  9  1  0
  4  3  1  0
  5  4  2  0
  6  7  2  0
  6  5  1  0
  7  8  1  0
  8  9  2  0
 10 17  1  0
 10  2  1  0
 11 10  2  0
 13 12  1  0
 14 13  1  0
 15 14  1  0
 16 15  1  1
 16 17  1  0
 18 19  2  0
 18 16  1  0
 20 18  1  0
 21 20  1  0
 22 21  1  0
 23 22  1  0
 24 23  1  0
 24 20  1  0
 24 25  1  6
 26 25  2  0
 27 25  1  0
M  END
$$$$
