FMP.pdb
     RDKit          3D

 27 28  0  0  1  0  0  0  0  0999 V2000
    8.5650  -16.5100   25.9656 N   0  0  0  0  0  0  0  0  0  0  0  0
    7.1677  -16.8861   25.9010 C   0  0  1  0  0  0  0  0  0  0  0  0
    6.3711  -15.9332   26.7438 C   0  0  0  0  0  0  0  0  0  0  0  0
    6.7520  -14.5356   26.5921 C   0  0  0  0  0  0  0  0  0  0  0  0
    8.1056  -14.1996   26.7105 C   0  0  0  0  0  0  0  0  0  0  0  0
    8.4713  -12.8746   26.5682 C   0  0  0  0  0  0  0  0  0  0  0  0
    7.5360  -11.8885   26.3143 C   0  0  0  0  0  0  0  0  0  0  0  0
    6.1953  -12.2491   26.2009 C   0  0  0  0  0  0  0  0  0  0  0  0
    5.8061  -13.5653   26.3391 C   0  0  0  0  0  0  0  0  0  0  0  0
    6.7409  -16.7633   24.4571 C   0  0  0  0  0  0  0  0  0  0  0  0
    5.7072  -16.1194   24.1495 O   0  0  0  0  0  0  0  0  0  0  0  0
    6.8722  -11.9266   20.5511 C   0  0  0  0  0  0  0  0  0  0  0  0
    8.2046  -12.6931   21.4762 S   0  0  0  0  0  0  0  0  0  0  0  0
    8.3035  -14.4805   21.1261 C   0  0  0  0  0  0  0  0  0  0  0  0
    7.8547  -15.1916   22.3882 C   0  0  0  0  0  0  0  0  0  0  0  0
    7.8014  -16.6868   22.1896 C   0  0  2  0  0  0  0  0  0  0  0  0
    7.4982  -17.3710   23.4312 N   0  0  0  0  0  0  0  0  0  0  0  0
    9.0690  -17.2315   21.6456 C   0  0  0  0  0  0  0  0  0  0  0  0
   10.1236  -17.2644   22.3647 O   0  0  0  0  0  0  0  0  0  0  0  0
    9.2148  -17.7480   20.3224 N   0  0  0  0  0  0  0  0  0  0  0  0
    8.3982  -17.4617   19.1622 C   0  0  0  0  0  0  0  0  0  0  0  0
    8.3671  -18.7917   18.4146 C   0  0  0  0  0  0  0  0  0  0  0  0
    9.4224  -19.6628   19.0604 C   0  0  0  0  0  0  0  0  0  0  0  0
   10.2373  -18.6753   19.8653 C   0  0  1  0  0  0  0  0  0  0  0  0
   11.2412  -17.9828   19.0247 C   0  0  0  0  0  0  0  0  0  0  0  0
   12.1868  -18.5700   18.4767 O   0  0  0  0  0  0  0  0  0  0  0  0
   11.1333  -16.6122   18.8310 O   0  0  0  0  0  0  0  0  0  0  0  0
  2  1  1  6
  3  2  1  0
  4  9  1  0
  4  3  1  0
  5  4  2  0
  6  7  2  0
  6  5  1  0
  7  8  1  0
  8  9  2  0
 10 17  1  0
 10  2  1  0
 11 10  2  0
 13 12  1  0
 14 13  1  0
 15 14  1  0
 16 15  1  1
 16 17  1  0
 18 19  2  0
 18 16  1  0
 20 18  1  0
 21 20  1  0
 22 21  1  0
 23 22  1  0
 24 23  1  0
 24 20  1  0
 24 25  1  6
 26 25  2  0
 27 25  1  0
M  END
$$$$
