FMP.pdb
     RDKit          3D

 27 28  0  0  1  0  0  0  0  0999 V2000
    8.2953  -17.7822   21.5866 N   0  0  0  0  0  0  0  0  0  0  0  0
    8.6180  -16.4332   21.1692 C   0  0  1  0  0  0  0  0  0  0  0  0
    7.4158  -15.8336   20.4998 C   0  0  0  0  0  0  0  0  0  0  0  0
    7.5917  -14.4511   20.0769 C   0  0  0  0  0  0  0  0  0  0  0  0
    8.3431  -14.2002   18.9229 C   0  0  0  0  0  0  0  0  0  0  0  0
    8.5133  -12.8898   18.5184 C   0  0  0  0  0  0  0  0  0  0  0  0
    7.9617  -11.8367   19.2244 C   0  0  0  0  0  0  0  0  0  0  0  0
    7.2183  -12.1132   20.3695 C   0  0  0  0  0  0  0  0  0  0  0  0
    7.0347  -13.4131   20.7928 C   0  0  0  0  0  0  0  0  0  0  0  0
    8.9463  -15.6484   22.4176 C   0  0  0  0  0  0  0  0  0  0  0  0
    9.8077  -14.7347   22.3891 O   0  0  0  0  0  0  0  0  0  0  0  0
    5.8674  -10.8438   26.4239 C   0  0  0  0  0  0  0  0  0  0  0  0
    6.2602  -12.5745   26.6866 S   0  0  0  0  0  0  0  0  0  0  0  0
    7.1092  -13.2826   25.2358 C   0  0  0  0  0  0  0  0  0  0  0  0
    7.3781  -14.7389   25.5629 C   0  0  0  0  0  0  0  0  0  0  0  0
    8.6198  -15.2404   24.8669 C   0  0  2  0  0  0  0  0  0  0  0  0
    8.2891  -15.9306   23.6357 N   0  0  0  0  0  0  0  0  0  0  0  0
    9.4192  -16.1517   25.7212 C   0  0  0  0  0  0  0  0  0  0  0  0
    9.7169  -17.3260   25.3178 O   0  0  0  0  0  0  0  0  0  0  0  0
    9.9081  -15.8084   27.0181 N   0  0  0  0  0  0  0  0  0  0  0  0
    9.4342  -14.7610   27.8974 C   0  0  0  0  0  0  0  0  0  0  0  0
   10.7083  -14.2640   28.5744 C   0  0  0  0  0  0  0  0  0  0  0  0
   11.7835  -15.2761   28.2436 C   0  0  0  0  0  0  0  0  0  0  0  0
   10.9944  -16.4603   27.7318 C   0  0  1  0  0  0  0  0  0  0  0  0
   10.4740  -17.2906   28.8425 C   0  0  0  0  0  0  0  0  0  0  0  0
   11.2024  -17.9856   29.5676 O   0  0  0  0  0  0  0  0  0  0  0  0
    9.1092  -17.3029   29.0974 O   0  0  0  0  0  0  0  0  0  0  0  0
  2  1  1  1
  3  2  1  0
  4  9  1  0
  4  3  1  0
  5  4  2  0
  6  7  2  0
  6  5  1  0
  7  8  1  0
  8  9  2  0
 10 17  1  0
 10  2  1  0
 11 10  2  0
 13 12  1  0
 14 13  1  0
 15 14  1  0
 16 15  1  1
 16 17  1  0
 18 19  2  0
 18 16  1  0
 20 18  1  0
 21 20  1  0
 22 21  1  0
 23 22  1  0
 24 23  1  0
 24 20  1  0
 24 25  1  1
 26 25  2  0
 27 25  1  0
M  END
$$$$
