FMP.pdb
     RDKit          3D

 27 28  0  0  1  0  0  0  0  0999 V2000
   11.3227  -17.5311   21.3828 N   0  0  0  0  0  0  0  0  0  0  0  0
   10.5270  -16.3209   21.3635 C   0  0  1  0  0  0  0  0  0  0  0  0
    9.1824  -16.6358   20.7753 C   0  0  0  0  0  0  0  0  0  0  0  0
    8.3591  -15.4663   20.5003 C   0  0  0  0  0  0  0  0  0  0  0  0
    7.0271  -15.4760   20.9303 C   0  0  0  0  0  0  0  0  0  0  0  0
    6.2420  -14.3688   20.6708 C   0  0  0  0  0  0  0  0  0  0  0  0
    6.7427  -13.2666   20.0028 C   0  0  0  0  0  0  0  0  0  0  0  0
    8.0716  -13.2819   19.5854 C   0  0  0  0  0  0  0  0  0  0  0  0
    8.8747  -14.3758   19.8330 C   0  0  0  0  0  0  0  0  0  0  0  0
   10.3605  -15.8755   22.7974 C   0  0  0  0  0  0  0  0  0  0  0  0
   11.1738  -16.2467   23.6797 O   0  0  0  0  0  0  0  0  0  0  0  0
    5.7909  -11.6821   27.7683 C   0  0  0  0  0  0  0  0  0  0  0  0
    6.0623  -12.4060   26.1494 S   0  0  0  0  0  0  0  0  0  0  0  0
    7.5803  -13.4172   26.1284 C   0  0  0  0  0  0  0  0  0  0  0  0
    7.8327  -13.7843   24.6787 C   0  0  0  0  0  0  0  0  0  0  0  0
    9.1359  -14.5282   24.5170 C   0  0  2  0  0  0  0  0  0  0  0  0
    9.2874  -15.0348   23.1672 N   0  0  0  0  0  0  0  0  0  0  0  0
    9.2631  -15.6611   25.4656 C   0  0  0  0  0  0  0  0  0  0  0  0
    8.9120  -16.8393   25.1211 O   0  0  0  0  0  0  0  0  0  0  0  0
    9.7708  -15.5383   26.7944 N   0  0  0  0  0  0  0  0  0  0  0  0
    9.7377  -14.3742   27.6539 C   0  0  0  0  0  0  0  0  0  0  0  0
   11.0574  -14.4590   28.4154 C   0  0  0  0  0  0  0  0  0  0  0  0
   11.6139  -15.8392   28.1416 C   0  0  0  0  0  0  0  0  0  0  0  0
   10.4270  -16.5802   27.5678 C   0  0  1  0  0  0  0  0  0  0  0  0
    9.5338  -17.0891   28.6341 C   0  0  0  0  0  0  0  0  0  0  0  0
    9.8834  -17.9486   29.4577 O   0  0  0  0  0  0  0  0  0  0  0  0
    8.2412  -16.5913   28.7301 O   0  0  0  0  0  0  0  0  0  0  0  0
  2  1  1  1
  3  2  1  0
  4  9  1  0
  4  3  1  0
  5  4  2  0
  6  7  2  0
  6  5  1  0
  7  8  1  0
  8  9  2  0
 10 17  1  0
 10  2  1  0
 11 10  2  0
 13 12  1  0
 14 13  1  0
 15 14  1  0
 16 15  1  6
 16 17  1  0
 18 19  2  0
 18 16  1  0
 20 18  1  0
 21 20  1  0
 22 21  1  0
 23 22  1  0
 24 23  1  0
 24 20  1  0
 24 25  1  1
 26 25  2  0
 27 25  1  0
M  END
$$$$
