YRC.pdb
     RDKit          3D

 30 30  0  0  1  0  0  0  0  0999 V2000
   19.8911  -11.5546  -16.8045 O   0  0  0  0  0  0  0  0  0  0  0  0
   19.7716  -12.9326  -16.6913 C   0  0  0  0  0  0  0  0  0  0  0  0
   18.7494  -13.6444  -17.2803 C   0  0  0  0  0  0  0  0  0  0  0  0
   18.6550  -15.0218  -17.1514 C   0  0  0  0  0  0  0  0  0  0  0  0
   19.5859  -15.7134  -16.4285 C   0  0  0  0  0  0  0  0  0  0  0  0
   19.5237  -17.1884  -16.2694 C   0  0  0  0  0  0  0  0  0  0  0  0
   20.6672  -17.7821  -17.1007 C   0  0  2  0  0  0  0  0  0  0  0  0
   20.5266  -17.4198  -18.4693 N   0  0  0  0  0  0  0  0  0  0  0  0
   20.8596  -19.2214  -16.8407 C   0  0  0  0  0  0  0  0  0  0  0  0
   20.0495  -20.0002  -17.4379 O   0  0  0  0  0  0  0  0  0  0  0  0
   20.6075  -14.9962  -15.8402 C   0  0  0  0  0  0  0  0  0  0  0  0
   20.7180  -13.6159  -15.9585 C   0  0  0  0  0  0  0  0  0  0  0  0
   26.2188  -25.3098  -15.8493 N   0  0  0  0  0  0  0  0  0  0  0  0
   26.5620  -23.9983  -16.2540 C   0  0  0  0  0  0  0  0  0  0  0  0
   27.3825  -23.7539  -17.2228 N   0  0  0  0  0  0  0  0  0  0  0  0
   25.9816  -22.9052  -15.5653 N   0  0  0  0  0  0  0  0  0  0  0  0
   25.0453  -23.1088  -14.4516 C   0  0  0  0  0  0  0  0  0  0  0  0
   23.6462  -22.8595  -14.8796 C   0  0  0  0  0  0  0  0  0  0  0  0
   23.3466  -21.4979  -15.3599 C   0  0  0  0  0  0  0  0  0  0  0  0
   21.9445  -21.2296  -15.8358 C   0  0  2  0  0  0  0  0  0  0  0  0
   21.8405  -19.7645  -16.0095 N   0  0  0  0  0  0  0  0  0  0  0  0
   20.8840  -21.6173  -14.9036 C   0  0  0  0  0  0  0  0  0  0  0  0
   20.5434  -20.8040  -13.9749 O   0  0  0  0  0  0  0  0  0  0  0  0
   27.7024  -22.8178  -17.4926 N   0  0  0  0  0  0  0  0  0  0  0  0
   20.1523  -22.8250  -14.8948 C   0  0  1  0  0  0  0  0  0  0  0  0
   19.1024  -23.1305  -13.9745 C   0  0  0  0  0  0  0  0  0  0  0  0
   17.9132  -22.2003  -14.0982 S   0  0  0  0  0  0  0  0  0  0  0  0
   16.7002  -22.7518  -12.8442 C   0  0  0  0  0  0  0  0  0  0  0  0
   18.6362  -24.5140  -14.0326 O   0  0  0  0  0  0  0  0  0  0  0  0
   17.8630  -25.1532  -13.0822 O   0  0  0  0  0  0  0  0  0  0  0  0
  2  1  1  0
  3  2  2  0
  4  3  1  0
  5 11  1  0
  5  4  2  0
  6  5  1  0
  7  6  1  0
  7  8  1  6
  9  7  1  0
  9 10  2  0
 11 12  2  0
 12  2  1  0
 13 14  1  0
 14 15  2  0
 16 14  1  0
 16 17  1  0
 18 17  1  0
 20 19  1  1
 19 18  1  0
 20 21  1  0
 21  9  1  0
 22 20  1  0
 23 22  2  0
 24 22  1  0
 25 28  1  0
 25 24  1  0
 25 26  1  1
 27 26  1  0
 28 29  1  0
 30 28  2  0
M  END
$$$$
