YRC.pdb
     RDKit          3D

 30 30  0  0  1  0  0  0  0  0999 V2000
   28.5590  -13.0926  -18.0923 O   0  0  0  0  0  0  0  0  0  0  0  0
   27.8034  -14.1480  -17.6013 C   0  0  0  0  0  0  0  0  0  0  0  0
   26.5668  -13.9738  -17.0190 C   0  0  0  0  0  0  0  0  0  0  0  0
   25.8328  -15.0472  -16.5375 C   0  0  0  0  0  0  0  0  0  0  0  0
   26.3253  -16.3184  -16.6311 C   0  0  0  0  0  0  0  0  0  0  0  0
   25.5700  -17.4952  -16.1318 C   0  0  0  0  0  0  0  0  0  0  0  0
   25.4874  -18.5027  -17.2848 C   0  0  2  0  0  0  0  0  0  0  0  0
   24.8363  -17.9205  -18.4078 N   0  0  0  0  0  0  0  0  0  0  0  0
   24.9581  -19.8092  -16.8498 C   0  0  0  0  0  0  0  0  0  0  0  0
   23.6969  -19.9498  -16.9455 O   0  0  0  0  0  0  0  0  0  0  0  0
   27.5643  -16.4879  -17.2146 C   0  0  0  0  0  0  0  0  0  0  0  0
   28.3139  -15.4242  -17.7025 C   0  0  0  0  0  0  0  0  0  0  0  0
   22.7592  -26.3066  -17.9627 N   0  0  0  0  0  0  0  0  0  0  0  0
   23.3465  -26.9032  -16.8223 C   0  0  0  0  0  0  0  0  0  0  0  0
   23.2236  -28.1601  -16.5449 N   0  0  0  0  0  0  0  0  0  0  0  0
   24.1009  -26.0862  -15.9452 N   0  0  0  0  0  0  0  0  0  0  0  0
   25.3103  -25.3855  -16.3980 C   0  0  0  0  0  0  0  0  0  0  0  0
   25.8340  -24.4879  -15.3383 C   0  0  0  0  0  0  0  0  0  0  0  0
   26.2058  -23.1264  -15.7653 C   0  0  0  0  0  0  0  0  0  0  0  0
   25.0863  -22.1458  -15.9876 C   0  0  2  0  0  0  0  0  0  0  0  0
   25.7267  -20.8647  -16.3570 N   0  0  0  0  0  0  0  0  0  0  0  0
   24.2522  -21.8744  -14.8152 C   0  0  0  0  0  0  0  0  0  0  0  0
   24.8089  -21.4713  -13.7347 O   0  0  0  0  0  0  0  0  0  0  0  0
   23.6101  -28.6124  -15.7098 N   0  0  0  0  0  0  0  0  0  0  0  0
   22.8495  -22.0028  -14.7153 C   0  0  2  0  0  0  0  0  0  0  0  0
   22.1104  -21.8998  -13.4963 C   0  0  0  0  0  0  0  0  0  0  0  0
   21.1411  -20.7357  -13.4845 S   0  0  0  0  0  0  0  0  0  0  0  0
   22.1432  -19.2331  -13.7779 C   0  0  0  0  0  0  0  0  0  0  0  0
   21.3989  -23.1192  -13.1203 O   0  0  0  0  0  0  0  0  0  0  0  0
   20.7438  -23.3438  -11.9244 O   0  0  0  0  0  0  0  0  0  0  0  0
  2  1  1  0
  3  2  2  0
  4  3  1  0
  5 11  1  0
  5  4  2  0
  6  5  1  0
  7  6  1  0
  7  8  1  6
  9  7  1  0
  9 10  2  0
 11 12  2  0
 12  2  1  0
 13 14  1  0
 14 15  2  0
 16 14  1  0
 16 17  1  0
 18 17  1  0
 20 19  1  1
 19 18  1  0
 20 21  1  0
 21  9  1  0
 22 20  1  0
 23 22  2  0
 24 22  1  0
 25 28  1  0
 25 24  1  0
 25 26  1  6
 27 26  1  0
 28 29  1  0
 30 28  2  0
M  END
$$$$
