YRC.pdb
     RDKit          3D

 30 30  0  0  1  0  0  0  0  0999 V2000
   29.5474  -15.2764  -18.4639 O   0  0  0  0  0  0  0  0  0  0  0  0
   28.7212  -15.8814  -17.5273 C   0  0  0  0  0  0  0  0  0  0  0  0
   27.7718  -15.1869  -16.8097 C   0  0  0  0  0  0  0  0  0  0  0  0
   26.9587  -15.8175  -15.8802 C   0  0  0  0  0  0  0  0  0  0  0  0
   27.0817  -17.1592  -15.6522 C   0  0  0  0  0  0  0  0  0  0  0  0
   26.2283  -17.8733  -14.6690 C   0  0  0  0  0  0  0  0  0  0  0  0
   25.2221  -18.7110  -15.4671 C   0  0  2  0  0  0  0  0  0  0  0  0
   24.3583  -17.8668  -16.2189 N   0  0  0  0  0  0  0  0  0  0  0  0
   24.5510  -19.7252  -14.6320 C   0  0  0  0  0  0  0  0  0  0  0  0
   23.6788  -19.2782  -13.8203 O   0  0  0  0  0  0  0  0  0  0  0  0
   28.0341  -17.8504  -16.3729 C   0  0  0  0  0  0  0  0  0  0  0  0
   28.8576  -17.2353  -17.3082 C   0  0  0  0  0  0  0  0  0  0  0  0
   26.4061  -24.9190  -18.0079 N   0  0  0  0  0  0  0  0  0  0  0  0
   26.3706  -25.7969  -16.8991 C   0  0  0  0  0  0  0  0  0  0  0  0
   27.3132  -26.6439  -16.6430 N   0  0  0  0  0  0  0  0  0  0  0  0
   25.2514  -25.7459  -16.0326 N   0  0  0  0  0  0  0  0  0  0  0  0
   24.1493  -24.8005  -16.2563 C   0  0  0  0  0  0  0  0  0  0  0  0
   24.4458  -23.4820  -15.6426 C   0  0  0  0  0  0  0  0  0  0  0  0
   24.0422  -23.3156  -14.2341 C   0  0  0  0  0  0  0  0  0  0  0  0
   24.3124  -21.9805  -13.5946 C   0  0  2  0  0  0  0  0  0  0  0  0
   24.8036  -21.0972  -14.6744 N   0  0  0  0  0  0  0  0  0  0  0  0
   25.3431  -21.9838  -12.5546 C   0  0  0  0  0  0  0  0  0  0  0  0
   26.0516  -23.0366  -12.3834 O   0  0  0  0  0  0  0  0  0  0  0  0
   27.3015  -27.3098  -15.8633 N   0  0  0  0  0  0  0  0  0  0  0  0
   25.6753  -20.9291  -11.6763 C   0  0  1  0  0  0  0  0  0  0  0  0
   26.0606  -21.1016  -10.3109 C   0  0  0  0  0  0  0  0  0  0  0  0
   27.3939  -20.4617   -9.9833 S   0  0  0  0  0  0  0  0  0  0  0  0
   28.3871  -20.5351  -11.5183 C   0  0  0  0  0  0  0  0  0  0  0  0
   25.0626  -20.6510   -9.3435 O   0  0  0  0  0  0  0  0  0  0  0  0
   25.1558  -20.7559   -7.9687 O   0  0  0  0  0  0  0  0  0  0  0  0
  2  1  1  0
  3  2  2  0
  4  3  1  0
  5 11  1  0
  5  4  2  0
  6  5  1  0
  7  6  1  0
  7  8  1  1
  9  7  1  0
  9 10  2  0
 11 12  2  0
 12  2  1  0
 13 14  1  0
 14 15  2  0
 16 14  1  0
 16 17  1  0
 18 17  1  0
 20 19  1  6
 19 18  1  0
 20 21  1  0
 21  9  1  0
 22 20  1  0
 23 22  2  0
 24 22  1  0
 25 28  1  0
 25 24  1  0
 25 26  1  1
 27 26  1  0
 28 29  1  0
 30 28  2  0
M  END
$$$$
