YRC.pdb
     RDKit          3D

 30 30  0  0  1  0  0  0  0  0999 V2000
   28.4033  -19.6358   -5.4859 O   0  0  0  0  0  0  0  0  0  0  0  0
   28.2626  -19.9889   -6.8206 C   0  0  0  0  0  0  0  0  0  0  0  0
   29.2989  -20.5009   -7.5708 C   0  0  0  0  0  0  0  0  0  0  0  0
   29.1297  -20.8463   -8.9030 C   0  0  0  0  0  0  0  0  0  0  0  0
   27.9160  -20.6852   -9.5097 C   0  0  0  0  0  0  0  0  0  0  0  0
   27.6916  -21.0464  -10.9324 C   0  0  0  0  0  0  0  0  0  0  0  0
   26.2551  -20.6398  -11.2817 C   0  0  2  0  0  0  0  0  0  0  0  0
   25.3535  -21.7011  -10.9907 N   0  0  0  0  0  0  0  0  0  0  0  0
   26.1488  -20.0692  -12.6381 C   0  0  0  0  0  0  0  0  0  0  0  0
   25.8099  -20.8869  -13.5524 O   0  0  0  0  0  0  0  0  0  0  0  0
   26.8814  -20.1718   -8.7546 C   0  0  0  0  0  0  0  0  0  0  0  0
   27.0324  -19.8201   -7.4186 C   0  0  0  0  0  0  0  0  0  0  0  0
   22.5858  -16.4556  -18.0185 N   0  0  0  0  0  0  0  0  0  0  0  0
   23.6609  -17.3693  -18.1218 C   0  0  0  0  0  0  0  0  0  0  0  0
   23.6817  -18.3357  -18.9804 N   0  0  0  0  0  0  0  0  0  0  0  0
   24.7623  -17.2187  -17.2441 N   0  0  0  0  0  0  0  0  0  0  0  0
   24.8224  -16.1220  -16.2682 C   0  0  0  0  0  0  0  0  0  0  0  0
   26.1533  -16.0637  -15.6139 C   0  0  0  0  0  0  0  0  0  0  0  0
   26.2772  -16.7761  -14.3288 C   0  0  0  0  0  0  0  0  0  0  0  0
   26.2599  -18.2802  -14.3719 C   0  0  2  0  0  0  0  0  0  0  0  0
   26.3883  -18.7350  -12.9705 N   0  0  0  0  0  0  0  0  0  0  0  0
   27.3612  -18.8960  -15.1148 C   0  0  0  0  0  0  0  0  0  0  0  0
   28.5647  -18.5558  -14.8399 O   0  0  0  0  0  0  0  0  0  0  0  0
   24.4353  -19.0263  -19.0614 N   0  0  0  0  0  0  0  0  0  0  0  0
   27.2663  -19.8618  -16.1407 C   0  0  2  0  0  0  0  0  0  0  0  0
   28.3646  -20.3069  -16.9396 C   0  0  0  0  0  0  0  0  0  0  0  0
   28.9393  -21.6299  -16.4771 S   0  0  0  0  0  0  0  0  0  0  0  0
   27.5095  -22.7322  -16.1792 C   0  0  0  0  0  0  0  0  0  0  0  0
   28.0748  -20.3843  -18.3695 O   0  0  0  0  0  0  0  0  0  0  0  0
   28.9690  -20.7331  -19.3638 O   0  0  0  0  0  0  0  0  0  0  0  0
  2  1  1  0
  3  2  2  0
  4  3  1  0
  5 11  1  0
  5  4  2  0
  6  5  1  0
  7  6  1  0
  7  8  1  6
  9  7  1  0
  9 10  2  0
 11 12  2  0
 12  2  1  0
 13 14  1  0
 14 15  2  0
 16 14  1  0
 16 17  1  0
 18 17  1  0
 20 19  1  1
 19 18  1  0
 20 21  1  0
 21  9  1  0
 22 20  1  0
 23 22  2  0
 24 22  1  0
 25 28  1  0
 25 24  1  0
 25 26  1  1
 27 26  1  0
 28 29  1  0
 30 28  2  0
M  END
$$$$
