YRC.pdb
     RDKit          3D

 30 30  0  0  1  0  0  0  0  0999 V2000
   23.4199  -22.0767   -7.7726 O   0  0  0  0  0  0  0  0  0  0  0  0
   23.2772  -21.7748   -9.1196 C   0  0  0  0  0  0  0  0  0  0  0  0
   22.1232  -22.0367   -9.8254 C   0  0  0  0  0  0  0  0  0  0  0  0
   22.0079  -21.7235  -11.1712 C   0  0  0  0  0  0  0  0  0  0  0  0
   23.0492  -21.1401  -11.8365 C   0  0  0  0  0  0  0  0  0  0  0  0
   22.9654  -20.7850  -13.2758 C   0  0  0  0  0  0  0  0  0  0  0  0
   22.3608  -19.3785  -13.3608 C   0  0  2  0  0  0  0  0  0  0  0  0
   20.9509  -19.4317  -13.1785 N   0  0  0  0  0  0  0  0  0  0  0  0
   22.8202  -18.6428  -14.5542 C   0  0  0  0  0  0  0  0  0  0  0  0
   22.0567  -18.7130  -15.5699 O   0  0  0  0  0  0  0  0  0  0  0  0
   24.2030  -20.8801  -11.1255 C   0  0  0  0  0  0  0  0  0  0  0  0
   24.3366  -21.1871   -9.7768 C   0  0  0  0  0  0  0  0  0  0  0  0
   26.9349  -13.5868  -18.9201 N   0  0  0  0  0  0  0  0  0  0  0  0
   28.1307  -14.0052  -18.2905 C   0  0  0  0  0  0  0  0  0  0  0  0
   29.2509  -14.1320  -18.9236 N   0  0  0  0  0  0  0  0  0  0  0  0
   28.0979  -14.2998  -16.9055 N   0  0  0  0  0  0  0  0  0  0  0  0
   26.8512  -14.2186  -16.1324 C   0  0  0  0  0  0  0  0  0  0  0  0
   25.8935  -15.2711  -16.5542 C   0  0  0  0  0  0  0  0  0  0  0  0
   25.3600  -16.1315  -15.4821 C   0  0  0  0  0  0  0  0  0  0  0  0
   24.3255  -17.1528  -15.8708 C   0  0  2  0  0  0  0  0  0  0  0  0
   23.9990  -17.9001  -14.6369 N   0  0  0  0  0  0  0  0  0  0  0  0
   24.7651  -18.1427  -16.8562 C   0  0  0  0  0  0  0  0  0  0  0  0
   25.1235  -19.3045  -16.4544 O   0  0  0  0  0  0  0  0  0  0  0  0
   30.1251  -14.4603  -18.5000 N   0  0  0  0  0  0  0  0  0  0  0  0
   24.8477  -17.9775  -18.2562 C   0  0  1  0  0  0  0  0  0  0  0  0
   24.7777  -19.0447  -19.2042 C   0  0  0  0  0  0  0  0  0  0  0  0
   23.5680  -19.9354  -19.0095 S   0  0  0  0  0  0  0  0  0  0  0  0
   23.7210  -21.2815  -20.2394 C   0  0  0  0  0  0  0  0  0  0  0  0
   24.8355  -18.6138  -20.5991 O   0  0  0  0  0  0  0  0  0  0  0  0
   24.2175  -17.4991  -21.1333 O   0  0  0  0  0  0  0  0  0  0  0  0
  2  1  1  0
  3  2  2  0
  4  3  1  0
  5 11  1  0
  5  4  2  0
  6  5  1  0
  7  6  1  0
  7  8  1  6
  9  7  1  0
  9 10  2  0
 11 12  2  0
 12  2  1  0
 13 14  1  0
 14 15  2  0
 16 14  1  0
 16 17  1  0
 18 17  1  0
 20 19  1  1
 19 18  1  0
 20 21  1  0
 21  9  1  0
 22 20  1  0
 23 22  2  0
 24 22  1  0
 25 28  1  0
 25 24  1  0
 25 26  1  6
 27 26  1  0
 28 29  1  0
 30 28  2  0
M  END
$$$$
