YRC.pdb
     RDKit          3D

 30 30  0  0  1  0  0  0  0  0999 V2000
   27.9638  -16.7336  -16.9328 O   0  0  0  0  0  0  0  0  0  0  0  0
   26.7217  -17.3127  -16.7143 C   0  0  0  0  0  0  0  0  0  0  0  0
   25.9844  -17.0897  -15.5718 C   0  0  0  0  0  0  0  0  0  0  0  0
   24.7450  -17.6810  -15.3801 C   0  0  0  0  0  0  0  0  0  0  0  0
   24.2197  -18.5086  -16.3321 C   0  0  0  0  0  0  0  0  0  0  0  0
   22.8946  -19.1583  -16.1679 C   0  0  0  0  0  0  0  0  0  0  0  0
   23.1264  -20.4768  -15.4204 C   0  0  2  0  0  0  0  0  0  0  0  0
   24.0442  -21.2975  -16.1333 N   0  0  0  0  0  0  0  0  0  0  0  0
   21.8619  -21.1285  -15.0294 C   0  0  0  0  0  0  0  0  0  0  0  0
   21.4584  -22.0534  -15.8048 O   0  0  0  0  0  0  0  0  0  0  0  0
   24.9619  -18.7292  -17.4744 C   0  0  0  0  0  0  0  0  0  0  0  0
   26.2055  -18.1454  -17.6836 C   0  0  0  0  0  0  0  0  0  0  0  0
   16.8559  -24.1901   -8.8858 N   0  0  0  0  0  0  0  0  0  0  0  0
   18.2622  -24.2210   -9.0368 C   0  0  0  0  0  0  0  0  0  0  0  0
   18.9947  -25.1927   -8.5998 N   0  0  0  0  0  0  0  0  0  0  0  0
   18.8951  -23.1380   -9.6946 N   0  0  0  0  0  0  0  0  0  0  0  0
   18.1252  -22.0009  -10.2169 C   0  0  0  0  0  0  0  0  0  0  0  0
   18.2689  -21.8922  -11.6902 C   0  0  0  0  0  0  0  0  0  0  0  0
   19.6043  -21.5114  -12.1863 C   0  0  0  0  0  0  0  0  0  0  0  0
   19.7895  -21.4417  -13.6780 C   0  0  2  0  0  0  0  0  0  0  0  0
   21.1059  -20.8058  -13.9015 N   0  0  0  0  0  0  0  0  0  0  0  0
   18.8041  -20.6272  -14.3919 C   0  0  0  0  0  0  0  0  0  0  0  0
   18.8368  -19.3538  -14.2612 O   0  0  0  0  0  0  0  0  0  0  0  0
   20.0180  -25.2213   -8.6565 N   0  0  0  0  0  0  0  0  0  0  0  0
   17.7764  -21.0823  -15.2468 C   0  0  2  0  0  0  0  0  0  0  0  0
   16.8293  -20.2339  -15.8995 C   0  0  0  0  0  0  0  0  0  0  0  0
   16.2307  -20.8568  -17.1438 S   0  0  0  0  0  0  0  0  0  0  0  0
   17.6334  -21.2088  -18.2647 C   0  0  0  0  0  0  0  0  0  0  0  0
   15.7511  -19.7604  -15.0347 O   0  0  0  0  0  0  0  0  0  0  0  0
   15.0697  -18.5649  -15.1632 O   0  0  0  0  0  0  0  0  0  0  0  0
  2  1  1  0
  3  2  2  0
  4  3  1  0
  5 11  1  0
  5  4  2  0
  6  5  1  0
  7  6  1  0
  7  8  1  6
  9  7  1  0
  9 10  2  0
 11 12  2  0
 12  2  1  0
 13 14  1  0
 14 15  2  0
 16 14  1  0
 16 17  1  0
 18 17  1  0
 20 19  1  1
 19 18  1  0
 20 21  1  0
 21  9  1  0
 22 20  1  0
 23 22  2  0
 24 22  1  0
 25 28  1  0
 25 24  1  0
 25 26  1  6
 27 26  1  0
 28 29  1  0
 30 28  2  0
M  END
$$$$
