LSS.pdb
     RDKit          3D

 21 20  0  0  1  0  0  0  0  0999 V2000
   22.5041  -11.2082  -18.7569 C   0  0  0  0  0  0  0  0  0  0  0  0
   21.3495  -10.9762  -17.8003 C   0  0  2  0  0  0  0  0  0  0  0  0
   20.1010  -11.6872  -18.2480 C   0  0  0  0  0  0  0  0  0  0  0  0
   21.1434   -9.4713  -17.7091 C   0  0  0  0  0  0  0  0  0  0  0  0
   20.4818   -9.1940  -16.3897 C   0  0  2  0  0  0  0  0  0  0  0  0
   19.1675   -9.8097  -16.4013 N   0  0  0  0  0  0  0  0  0  0  0  0
   20.3689   -7.7592  -16.0759 C   0  0  0  0  0  0  0  0  0  0  0  0
   19.8375   -6.9746  -16.9045 O   0  0  0  0  0  0  0  0  0  0  0  0
   22.4497   -5.9698  -12.8607 O   0  0  0  0  0  0  0  0  0  0  0  0
   21.2109   -5.4294  -13.1751 C   0  0  0  0  0  0  0  0  0  0  0  0
   20.7848   -5.7663  -14.5889 C   0  0  2  0  0  0  0  0  0  0  0  0
   20.8346   -7.1746  -14.8582 N   0  0  0  0  0  0  0  0  0  0  0  0
   21.6290   -4.9662  -15.5042 C   0  0  0  0  0  0  0  0  0  0  0  0
   22.6511   -5.3828  -16.0905 O   0  0  0  0  0  0  0  0  0  0  0  0
   22.4182   -2.6191  -19.0516 O   0  0  0  0  0  0  0  0  0  0  0  0
   21.8313   -3.4051  -18.0900 C   0  0  0  0  0  0  0  0  0  0  0  0
   21.9443   -2.7717  -16.6980 C   0  0  2  0  0  0  0  0  0  0  0  0
   21.2406   -3.6164  -15.7302 N   0  0  0  0  0  0  0  0  0  0  0  0
   21.3355   -1.4296  -16.7128 C   0  0  0  0  0  0  0  0  0  0  0  0
   22.1112   -0.3116  -16.9143 O   0  0  0  0  0  0  0  0  0  0  0  0
   20.1081   -1.3044  -16.5416 O   0  0  0  0  0  0  0  0  0  0  0  0
  2  1  1  6
  3  2  1  0
  4  2  1  0
  4  5  1  0
  5  6  1  6
  7  5  1  0
  8  7  2  0
 10  9  1  0
 11 10  1  1
 11 12  1  0
 11 13  1  0
 12  7  1  0
 13 18  1  0
 14 13  2  0
 16 15  1  0
 17 16  1  6
 17 19  1  0
 18 17  1  0
 19 21  2  0
 19 20  1  0
M  END
$$$$
