LSS.pdb
     RDKit          3D

 21 20  0  0  1  0  0  0  0  0999 V2000
   28.9118  -20.2882  -19.0192 C   0  0  0  0  0  0  0  0  0  0  0  0
   28.2130  -19.9680  -17.7111 C   0  0  2  0  0  0  0  0  0  0  0  0
   28.3545  -18.5159  -17.3425 C   0  0  0  0  0  0  0  0  0  0  0  0
   28.8108  -20.8829  -16.6523 C   0  0  0  0  0  0  0  0  0  0  0  0
   28.6573  -22.2925  -17.1470 C   0  0  2  0  0  0  0  0  0  0  0  0
   27.2574  -22.6613  -17.0433 N   0  0  0  0  0  0  0  0  0  0  0  0
   29.4948  -23.2659  -16.4253 C   0  0  0  0  0  0  0  0  0  0  0  0
   29.0996  -23.7454  -15.3305 O   0  0  0  0  0  0  0  0  0  0  0  0
   30.9137  -26.3685  -17.8862 O   0  0  0  0  0  0  0  0  0  0  0  0
   31.0319  -26.1311  -16.5241 C   0  0  0  0  0  0  0  0  0  0  0  0
   31.5357  -24.7331  -16.2313 C   0  0  2  0  0  0  0  0  0  0  0  0
   30.7658  -23.7202  -16.8941 N   0  0  0  0  0  0  0  0  0  0  0  0
   32.9723  -24.7010  -16.5861 C   0  0  0  0  0  0  0  0  0  0  0  0
   33.4272  -24.4778  -17.7286 O   0  0  0  0  0  0  0  0  0  0  0  0
   36.0710  -27.5764  -14.6995 O   0  0  0  0  0  0  0  0  0  0  0  0
   35.0160  -27.1161  -15.4493 C   0  0  0  0  0  0  0  0  0  0  0  0
   35.1736  -25.6296  -15.7912 C   0  0  2  0  0  0  0  0  0  0  0  0
   33.9040  -24.9442  -15.5390 N   0  0  0  0  0  0  0  0  0  0  0  0
   35.5372  -25.4832  -17.2120 C   0  0  0  0  0  0  0  0  0  0  0  0
   36.7707  -24.9917  -17.5715 O   0  0  0  0  0  0  0  0  0  0  0  0
   34.7220  -25.8069  -18.0964 O   0  0  0  0  0  0  0  0  0  0  0  0
  2  1  1  6
  3  2  1  0
  4  2  1  0
  4  5  1  0
  5  6  1  1
  7  5  1  0
  8  7  2  0
 10  9  1  0
 11 10  1  6
 11 12  1  0
 11 13  1  0
 12  7  1  0
 13 18  1  0
 14 13  2  0
 16 15  1  0
 17 16  1  6
 17 19  1  0
 18 17  1  0
 19 21  2  0
 19 20  1  0
M  END
$$$$
