LSS.pdb
     RDKit          3D

 21 20  0  0  1  0  0  0  0  0999 V2000
   17.7580  -13.2485  -18.1390 C   0  0  0  0  0  0  0  0  0  0  0  0
   18.1518  -13.6123  -16.7196 C   0  0  2  0  0  0  0  0  0  0  0  0
   17.2959  -14.7207  -16.1687 C   0  0  0  0  0  0  0  0  0  0  0  0
   18.0402  -12.3427  -15.8882 C   0  0  0  0  0  0  0  0  0  0  0  0
   18.9944  -11.3431  -16.4759 C   0  0  2  0  0  0  0  0  0  0  0  0
   20.3339  -11.8978  -16.4079 N   0  0  0  0  0  0  0  0  0  0  0  0
   18.9540  -10.0281  -15.8134 C   0  0  0  0  0  0  0  0  0  0  0  0
   17.8464   -9.4923  -15.5472 O   0  0  0  0  0  0  0  0  0  0  0  0
   21.3736   -8.2261  -12.9019 O   0  0  0  0  0  0  0  0  0  0  0  0
   21.3272   -7.5978  -14.1383 C   0  0  0  0  0  0  0  0  0  0  0  0
   20.0771   -7.9581  -14.9136 C   0  0  2  0  0  0  0  0  0  0  0  0
   20.1201   -9.2924  -15.4388 N   0  0  0  0  0  0  0  0  0  0  0  0
   19.8950   -6.9248  -15.9576 C   0  0  0  0  0  0  0  0  0  0  0  0
   20.4026   -6.9571  -17.0992 O   0  0  0  0  0  0  0  0  0  0  0  0
   16.4694   -5.5098  -16.7835 O   0  0  0  0  0  0  0  0  0  0  0  0
   17.2676   -4.4255  -16.5109 C   0  0  0  0  0  0  0  0  0  0  0  0
   18.7557   -4.7794  -16.6203 C   0  0  2  0  0  0  0  0  0  0  0  0
   19.0760   -5.8090  -15.6291 N   0  0  0  0  0  0  0  0  0  0  0  0
   19.5712   -3.5789  -16.3629 C   0  0  0  0  0  0  0  0  0  0  0  0
   19.7823   -2.6504  -17.3556 O   0  0  0  0  0  0  0  0  0  0  0  0
   20.0745   -3.4018  -15.2374 O   0  0  0  0  0  0  0  0  0  0  0  0
  2  1  1  6
  3  2  1  0
  4  2  1  0
  4  5  1  0
  5  6  1  1
  7  5  1  0
  8  7  2  0
 10  9  1  0
 11 10  1  6
 11 12  1  0
 11 13  1  0
 12  7  1  0
 13 18  1  0
 14 13  2  0
 16 15  1  0
 17 16  1  1
 17 19  1  0
 18 17  1  0
 19 21  2  0
 19 20  1  0
M  END
$$$$
