LSS.pdb
     RDKit          3D

 21 20  0  0  1  0  0  0  0  0999 V2000
   18.8664  -11.5631  -13.5693 C   0  0  0  0  0  0  0  0  0  0  0  0
   17.7634  -11.3048  -14.5786 C   0  0  2  0  0  0  0  0  0  0  0  0
   18.2628  -11.4179  -15.9937 C   0  0  0  0  0  0  0  0  0  0  0  0
   17.2057   -9.9202  -14.2830 C   0  0  0  0  0  0  0  0  0  0  0  0
   16.5014   -9.9999  -12.9590 C   0  0  2  0  0  0  0  0  0  0  0  0
   15.3941  -10.9293  -13.0876 N   0  0  0  0  0  0  0  0  0  0  0  0
   16.0184   -8.6978  -12.4679 C   0  0  0  0  0  0  0  0  0  0  0  0
   15.1543   -8.0598  -13.1242 O   0  0  0  0  0  0  0  0  0  0  0  0
   17.8380   -6.6969   -9.1817 O   0  0  0  0  0  0  0  0  0  0  0  0
   16.4941   -6.4545   -9.4281 C   0  0  0  0  0  0  0  0  0  0  0  0
   16.1147   -6.7560  -10.8630 C   0  0  2  0  0  0  0  0  0  0  0  0
   16.4754   -8.0865  -11.2600 N   0  0  0  0  0  0  0  0  0  0  0  0
   16.7277   -5.7073  -11.7086 C   0  0  0  0  0  0  0  0  0  0  0  0
   17.7900   -5.8329  -12.3550 O   0  0  0  0  0  0  0  0  0  0  0  0
   16.3884   -2.4653  -14.8410 O   0  0  0  0  0  0  0  0  0  0  0  0
   15.9793   -3.4959  -14.0301 C   0  0  0  0  0  0  0  0  0  0  0  0
   16.5586   -3.3648  -12.6163 C   0  0  2  0  0  0  0  0  0  0  0  0
   16.0488   -4.4597  -11.7878 N   0  0  0  0  0  0  0  0  0  0  0  0
   16.1511   -2.0749  -12.0310 C   0  0  0  0  0  0  0  0  0  0  0  0
   16.8730   -0.9319  -12.2853 O   0  0  0  0  0  0  0  0  0  0  0  0
   15.1447   -2.0172  -11.2994 O   0  0  0  0  0  0  0  0  0  0  0  0
  2  1  1  1
  3  2  1  0
  4  2  1  0
  4  5  1  0
  5  6  1  6
  7  5  1  0
  8  7  2  0
 10  9  1  0
 11 10  1  1
 11 12  1  0
 11 13  1  0
 12  7  1  0
 13 18  1  0
 14 13  2  0
 16 15  1  0
 17 16  1  6
 17 19  1  0
 18 17  1  0
 19 21  2  0
 19 20  1  0
M  END
$$$$
