LSS.pdb
     RDKit          3D

 21 20  0  0  1  0  0  0  0  0999 V2000
   22.5073  -25.6347  -15.5382 C   0  0  0  0  0  0  0  0  0  0  0  0
   23.4578  -24.4711  -15.3270 C   0  0  2  0  0  0  0  0  0  0  0  0
   24.8935  -24.9210  -15.2935 C   0  0  0  0  0  0  0  0  0  0  0  0
   23.0462  -23.7909  -14.0295 C   0  0  0  0  0  0  0  0  0  0  0  0
   21.6364  -23.3065  -14.2113 C   0  0  2  0  0  0  0  0  0  0  0  0
   21.6519  -22.2050  -15.1564 N   0  0  0  0  0  0  0  0  0  0  0  0
   20.9885  -22.8904  -12.9555 C   0  0  0  0  0  0  0  0  0  0  0  0
   21.5884  -22.1153  -12.1656 O   0  0  0  0  0  0  0  0  0  0  0  0
   16.9309  -22.8182  -12.3310 O   0  0  0  0  0  0  0  0  0  0  0  0
   17.8023  -22.2102  -11.4383 C   0  0  0  0  0  0  0  0  0  0  0  0
   19.0971  -22.9820  -11.2912 C   0  0  2  0  0  0  0  0  0  0  0  0
   19.6849  -23.3176  -12.5561 N   0  0  0  0  0  0  0  0  0  0  0  0
   18.8101  -24.1641  -10.4482 C   0  0  0  0  0  0  0  0  0  0  0  0
   18.4984  -25.2960  -10.8768 O   0  0  0  0  0  0  0  0  0  0  0  0
   18.6063  -25.6384   -5.7799 O   0  0  0  0  0  0  0  0  0  0  0  0
   18.9451  -24.6705   -6.6938 C   0  0  0  0  0  0  0  0  0  0  0  0
   18.5192  -25.0624   -8.1139 C   0  0  2  0  0  0  0  0  0  0  0  0
   18.8977  -23.9917   -9.0388 N   0  0  0  0  0  0  0  0  0  0  0  0
   17.0587  -25.2562   -8.1580 C   0  0  0  0  0  0  0  0  0  0  0  0
   16.5159  -26.5142   -8.0359 O   0  0  0  0  0  0  0  0  0  0  0  0
   16.3079  -24.2737   -8.3071 O   0  0  0  0  0  0  0  0  0  0  0  0
  2  1  1  1
  3  2  1  0
  4  2  1  0
  4  5  1  0
  5  6  1  6
  7  5  1  0
  8  7  2  0
 10  9  1  0
 11 10  1  6
 11 12  1  0
 11 13  1  0
 12  7  1  0
 13 18  1  0
 14 13  2  0
 16 15  1  0
 17 16  1  1
 17 19  1  0
 18 17  1  0
 19 21  2  0
 19 20  1  0
M  END
$$$$
