LSS.pdb
     RDKit          3D

 21 20  0  0  1  0  0  0  0  0999 V2000
   16.4857  -30.2669   -9.8841 C   0  0  0  0  0  0  0  0  0  0  0  0
   16.0383  -28.8612  -10.2390 C   0  0  2  0  0  0  0  0  0  0  0  0
   14.5430  -28.7129  -10.1568 C   0  0  0  0  0  0  0  0  0  0  0  0
   16.5613  -28.5683  -11.6377 C   0  0  0  0  0  0  0  0  0  0  0  0
   17.8034  -27.7388  -11.4814 C   0  0  2  0  0  0  0  0  0  0  0  0
   17.5858  -26.4646  -12.1413 N   0  0  0  0  0  0  0  0  0  0  0  0
   19.0159  -28.3859  -12.0113 C   0  0  0  0  0  0  0  0  0  0  0  0
   19.1407  -28.5677  -13.2506 O   0  0  0  0  0  0  0  0  0  0  0  0
   22.7502  -28.5623  -10.0827 O   0  0  0  0  0  0  0  0  0  0  0  0
   22.3102  -29.7479  -10.6542 C   0  0  0  0  0  0  0  0  0  0  0  0
   21.2514  -29.5120  -11.7111 C   0  0  2  0  0  0  0  0  0  0  0  0
   20.0966  -28.8370  -11.1927 N   0  0  0  0  0  0  0  0  0  0  0  0
   20.9375  -30.8247  -12.3185 C   0  0  0  0  0  0  0  0  0  0  0  0
   20.0723  -31.6236  -11.9000 O   0  0  0  0  0  0  0  0  0  0  0  0
   20.2075  -31.5629  -15.9302 O   0  0  0  0  0  0  0  0  0  0  0  0
   21.3363  -32.2857  -15.6297 C   0  0  0  0  0  0  0  0  0  0  0  0
   21.4833  -32.4990  -14.1182 C   0  0  2  0  0  0  0  0  0  0  0  0
   21.6834  -31.2009  -13.4699 N   0  0  0  0  0  0  0  0  0  0  0  0
   22.6446  -33.3661  -13.8502 C   0  0  0  0  0  0  0  0  0  0  0  0
   22.6756  -34.6588  -14.3197 O   0  0  0  0  0  0  0  0  0  0  0  0
   23.6072  -32.9267  -13.1932 O   0  0  0  0  0  0  0  0  0  0  0  0
  2  1  1  6
  3  2  1  0
  4  2  1  0
  4  5  1  0
  5  6  1  6
  7  5  1  0
  8  7  2  0
 10  9  1  0
 11 10  1  1
 11 12  1  0
 11 13  1  0
 12  7  1  0
 13 18  1  0
 14 13  2  0
 16 15  1  0
 17 16  1  6
 17 19  1  0
 18 17  1  0
 19 21  2  0
 19 20  1  0
M  END
$$$$
