LSS.pdb
     RDKit          3D

 21 20  0  0  1  0  0  0  0  0999 V2000
   16.2982  -19.8214  -15.1140 C   0  0  0  0  0  0  0  0  0  0  0  0
   16.8646  -18.5363  -14.5397 C   0  0  2  0  0  0  0  0  0  0  0  0
   18.3620  -18.4751  -14.6764 C   0  0  0  0  0  0  0  0  0  0  0  0
   16.4246  -18.4681  -13.0845 C   0  0  0  0  0  0  0  0  0  0  0  0
   14.9241  -18.4069  -13.0780 C   0  0  2  0  0  0  0  0  0  0  0  0
   14.5201  -17.0922  -13.5417 N   0  0  0  0  0  0  0  0  0  0  0  0
   14.3276  -18.6873  -11.7606 C   0  0  0  0  0  0  0  0  0  0  0  0
   14.1759  -17.7553  -10.9282 O   0  0  0  0  0  0  0  0  0  0  0  0
   11.3866  -21.3324  -11.0242 O   0  0  0  0  0  0  0  0  0  0  0  0
   11.8012  -20.3621  -10.1229 C   0  0  0  0  0  0  0  0  0  0  0  0
   13.3102  -20.2484  -10.0625 C   0  0  2  0  0  0  0  0  0  0  0  0
   13.8944  -19.9841  -11.3459 N   0  0  0  0  0  0  0  0  0  0  0  0
   13.8188  -21.4876   -9.4330 C   0  0  0  0  0  0  0  0  0  0  0  0
   14.3360  -22.4467  -10.0452 O   0  0  0  0  0  0  0  0  0  0  0  0
   12.9363  -21.9100   -5.4331 O   0  0  0  0  0  0  0  0  0  0  0  0
   14.1282  -22.4927   -5.7896 C   0  0  0  0  0  0  0  0  0  0  0  0
   14.1927  -22.7674   -7.2969 C   0  0  2  0  0  0  0  0  0  0  0  0
   13.7073  -21.5888   -8.0184 N   0  0  0  0  0  0  0  0  0  0  0  0
   13.3463  -23.9282   -7.6263 C   0  0  0  0  0  0  0  0  0  0  0  0
   12.1987  -23.7693   -8.3679 O   0  0  0  0  0  0  0  0  0  0  0  0
   13.6712  -25.0636   -7.2307 O   0  0  0  0  0  0  0  0  0  0  0  0
  2  1  1  1
  3  2  1  0
  4  2  1  0
  4  5  1  0
  5  6  1  1
  7  5  1  0
  8  7  2  0
 10  9  1  0
 11 10  1  6
 11 12  1  0
 11 13  1  0
 12  7  1  0
 13 18  1  0
 14 13  2  0
 16 15  1  0
 17 16  1  1
 17 19  1  0
 18 17  1  0
 19 21  2  0
 19 20  1  0
M  END
$$$$
