LSS.pdb
     RDKit          3D

 21 20  0  0  1  0  0  0  0  0999 V2000
   17.1655  -29.8664  -10.8117 C   0  0  0  0  0  0  0  0  0  0  0  0
   17.5815  -28.5633  -11.4681 C   0  0  2  0  0  0  0  0  0  0  0  0
   16.7633  -28.2698  -12.6965 C   0  0  0  0  0  0  0  0  0  0  0  0
   19.0644  -28.6809  -11.7890 C   0  0  0  0  0  0  0  0  0  0  0  0
   19.6463  -27.2990  -11.7066 C   0  0  2  0  0  0  0  0  0  0  0  0
   20.9767  -27.3300  -12.2860 N   0  0  0  0  0  0  0  0  0  0  0  0
   19.7006  -26.7621  -10.3359 C   0  0  0  0  0  0  0  0  0  0  0  0
   20.4804  -27.2742   -9.4908 O   0  0  0  0  0  0  0  0  0  0  0  0
   17.8741  -23.1157   -9.2281 O   0  0  0  0  0  0  0  0  0  0  0  0
   18.9289  -23.6412   -8.4952 C   0  0  0  0  0  0  0  0  0  0  0  0
   18.9566  -25.1547   -8.5419 C   0  0  2  0  0  0  0  0  0  0  0  0
   18.9055  -25.6654   -9.8815 N   0  0  0  0  0  0  0  0  0  0  0  0
   17.8491  -25.6404   -7.6886 C   0  0  0  0  0  0  0  0  0  0  0  0
   16.6934  -25.9001   -8.0872 O   0  0  0  0  0  0  0  0  0  0  0  0
   16.7320  -26.6677   -3.0307 O   0  0  0  0  0  0  0  0  0  0  0  0
   17.6780  -26.2882   -3.9516 C   0  0  0  0  0  0  0  0  0  0  0  0
   17.0577  -26.0598   -5.3353 C   0  0  2  0  0  0  0  0  0  0  0  0
   18.1290  -25.8244   -6.3060 N   0  0  0  0  0  0  0  0  0  0  0  0
   16.1672  -24.8861   -5.2921 C   0  0  0  0  0  0  0  0  0  0  0  0
   14.8230  -25.0366   -5.0416 O   0  0  0  0  0  0  0  0  0  0  0  0
   16.6339  -23.7473   -5.4838 O   0  0  0  0  0  0  0  0  0  0  0  0
  2  1  1  6
  3  2  1  0
  4  2  1  0
  4  5  1  0
  5  6  1  1
  7  5  1  0
  8  7  2  0
 10  9  1  0
 11 10  1  6
 11 12  1  0
 11 13  1  0
 12  7  1  0
 13 18  1  0
 14 13  2  0
 16 15  1  0
 17 16  1  1
 17 19  1  0
 18 17  1  0
 19 21  2  0
 19 20  1  0
M  END
$$$$
