LSS.pdb
     RDKit          3D

 21 20  0  0  1  0  0  0  0  0999 V2000
   17.7402  -12.3658  -17.0998 C   0  0  0  0  0  0  0  0  0  0  0  0
   18.9855  -13.1210  -16.6746 C   0  0  2  0  0  0  0  0  0  0  0  0
   18.6469  -14.3711  -15.9083 C   0  0  0  0  0  0  0  0  0  0  0  0
   19.8277  -12.1599  -15.8484 C   0  0  0  0  0  0  0  0  0  0  0  0
   20.0949  -10.9560  -16.7054 C   0  0  2  0  0  0  0  0  0  0  0  0
   20.8985  -11.3739  -17.8395 N   0  0  0  0  0  0  0  0  0  0  0  0
   20.7614   -9.8562  -15.9871 C   0  0  0  0  0  0  0  0  0  0  0  0
   20.2361   -9.3735  -14.9500 O   0  0  0  0  0  0  0  0  0  0  0  0
   24.1592   -7.7138  -17.5177 O   0  0  0  0  0  0  0  0  0  0  0  0
   24.0525   -7.9524  -16.1549 C   0  0  0  0  0  0  0  0  0  0  0  0
   22.6165   -8.1693  -15.7253 C   0  0  2  0  0  0  0  0  0  0  0  0
   22.0025   -9.2786  -16.3964 N   0  0  0  0  0  0  0  0  0  0  0  0
   21.8989   -6.8914  -15.9319 C   0  0  0  0  0  0  0  0  0  0  0  0
   21.4296   -6.4967  -17.0209 O   0  0  0  0  0  0  0  0  0  0  0  0
   19.4975   -5.1620  -13.2283 O   0  0  0  0  0  0  0  0  0  0  0  0
   19.6667   -4.7764  -14.5358 C   0  0  0  0  0  0  0  0  0  0  0  0
   21.1507   -4.7119  -14.9169 C   0  0  2  0  0  0  0  0  0  0  0  0
   21.7333   -6.0503  -14.7966 N   0  0  0  0  0  0  0  0  0  0  0  0
   21.8553   -3.7861  -14.0121 C   0  0  0  0  0  0  0  0  0  0  0  0
   22.7755   -4.2588  -13.1054 O   0  0  0  0  0  0  0  0  0  0  0  0
   21.6171   -2.5648  -14.0674 O   0  0  0  0  0  0  0  0  0  0  0  0
  2  1  1  1
  3  2  1  0
  4  2  1  0
  4  5  1  0
  5  6  1  6
  7  5  1  0
  8  7  2  0
 10  9  1  0
 11 10  1  6
 11 12  1  0
 11 13  1  0
 12  7  1  0
 13 18  1  0
 14 13  2  0
 16 15  1  0
 17 16  1  1
 17 19  1  0
 18 17  1  0
 19 21  2  0
 19 20  1  0
M  END
$$$$
