LSS.pdb
     RDKit          3D

 21 20  0  0  1  0  0  0  0  0999 V2000
   24.1929  -12.4757  -20.4725 C   0  0  0  0  0  0  0  0  0  0  0  0
   23.1704  -13.4569  -19.9307 C   0  0  2  0  0  0  0  0  0  0  0  0
   22.8866  -14.5654  -20.9081 C   0  0  0  0  0  0  0  0  0  0  0  0
   21.9184  -12.6572  -19.6008 C   0  0  0  0  0  0  0  0  0  0  0  0
   22.3141  -11.6063  -18.6038 C   0  0  2  0  0  0  0  0  0  0  0  0
   22.7687  -12.2720  -17.3968 N   0  0  0  0  0  0  0  0  0  0  0  0
   21.2330  -10.6577  -18.2854 C   0  0  0  0  0  0  0  0  0  0  0  0
   20.6405  -10.0459  -19.2123 O   0  0  0  0  0  0  0  0  0  0  0  0
   18.7688  -10.9247  -14.9983 O   0  0  0  0  0  0  0  0  0  0  0  0
   19.2006   -9.6291  -15.2446 C   0  0  0  0  0  0  0  0  0  0  0  0
   19.7264   -9.4626  -16.6552 C   0  0  2  0  0  0  0  0  0  0  0  0
   20.7938  -10.3727  -16.9560 N   0  0  0  0  0  0  0  0  0  0  0  0
   20.1070   -8.0415  -16.8168 C   0  0  0  0  0  0  0  0  0  0  0  0
   21.2455   -7.5720  -16.6034 O   0  0  0  0  0  0  0  0  0  0  0  0
   17.0262   -5.4115  -17.9163 O   0  0  0  0  0  0  0  0  0  0  0  0
   18.2940   -5.1191  -18.3568 C   0  0  0  0  0  0  0  0  0  0  0  0
   19.3631   -5.7164  -17.4338 C   0  0  2  0  0  0  0  0  0  0  0  0
   19.0919   -7.1439  -17.2497 N   0  0  0  0  0  0  0  0  0  0  0  0
   19.3257   -5.0367  -16.1265 C   0  0  0  0  0  0  0  0  0  0  0  0
   19.6564   -3.7056  -16.0204 O   0  0  0  0  0  0  0  0  0  0  0  0
   18.9921   -5.6711  -15.1079 O   0  0  0  0  0  0  0  0  0  0  0  0
  2  1  1  6
  3  2  1  0
  4  2  1  0
  4  5  1  0
  5  6  1  1
  7  5  1  0
  8  7  2  0
 10  9  1  0
 11 10  1  1
 11 12  1  0
 11 13  1  0
 12  7  1  0
 13 18  1  0
 14 13  2  0
 16 15  1  0
 17 16  1  6
 17 19  1  0
 18 17  1  0
 19 21  2  0
 19 20  1  0
M  END
$$$$
