LSS.pdb
     RDKit          3D

 21 20  0  0  1  0  0  0  0  0999 V2000
   17.2708  -12.7273  -18.5737 C   0  0  0  0  0  0  0  0  0  0  0  0
   17.8447  -13.6125  -17.4832 C   0  0  2  0  0  0  0  0  0  0  0  0
   16.8602  -14.6597  -17.0373 C   0  0  0  0  0  0  0  0  0  0  0  0
   18.2568  -12.6977  -16.3391 C   0  0  0  0  0  0  0  0  0  0  0  0
   19.2906  -11.7517  -16.8789 C   0  0  2  0  0  0  0  0  0  0  0  0
   20.4408  -12.5283  -17.3036 N   0  0  0  0  0  0  0  0  0  0  0  0
   19.7033  -10.7161  -15.9160 C   0  0  0  0  0  0  0  0  0  0  0  0
   18.8347  -10.0003  -15.3522 O   0  0  0  0  0  0  0  0  0  0  0  0
   23.8040   -9.6747  -15.1290 O   0  0  0  0  0  0  0  0  0  0  0  0
   22.8633   -9.6420  -14.1093 C   0  0  0  0  0  0  0  0  0  0  0  0
   21.4586   -9.4363  -14.6367 C   0  0  2  0  0  0  0  0  0  0  0  0
   21.0636  -10.4569  -15.5643 N   0  0  0  0  0  0  0  0  0  0  0  0
   21.3998   -8.0724  -15.2085 C   0  0  0  0  0  0  0  0  0  0  0  0
   21.5200   -7.7939  -16.4209 O   0  0  0  0  0  0  0  0  0  0  0  0
   19.7244   -3.6632  -14.6825 O   0  0  0  0  0  0  0  0  0  0  0  0
   19.7962   -4.9930  -14.3454 C   0  0  0  0  0  0  0  0  0  0  0  0
   21.1378   -5.6083  -14.7615 C   0  0  2  0  0  0  0  0  0  0  0  0
   21.1895   -6.9976  -14.3006 N   0  0  0  0  0  0  0  0  0  0  0  0
   22.2429   -4.8470  -14.1521 C   0  0  0  0  0  0  0  0  0  0  0  0
   22.8738   -3.8463  -14.8541 O   0  0  0  0  0  0  0  0  0  0  0  0
   22.6103   -5.1104  -12.9915 O   0  0  0  0  0  0  0  0  0  0  0  0
  2  1  1  6
  3  2  1  0
  4  2  1  0
  4  5  1  0
  5  6  1  1
  7  5  1  0
  8  7  2  0
 10  9  1  0
 11 10  1  6
 11 12  1  0
 11 13  1  0
 12  7  1  0
 13 18  1  0
 14 13  2  0
 16 15  1  0
 17 16  1  1
 17 19  1  0
 18 17  1  0
 19 21  2  0
 19 20  1  0
M  END
$$$$
