RWE.pdb
     RDKit          3D

 35 36  0  0  1  0  0  0  0  0999 V2000
    7.8064  -12.3293   19.7015 N   0  0  0  0  0  0  0  0  0  0  0  0
    7.6542  -13.1612   18.5539 C   0  0  0  0  0  0  0  0  0  0  0  0
    6.7499  -12.8695   17.6999 N   0  0  0  0  0  0  0  0  0  0  0  0
    8.4844  -14.2924   18.3533 N   0  0  0  0  0  0  0  0  0  0  0  0
    9.4772  -14.5988   19.3843 C   0  0  0  0  0  0  0  0  0  0  0  0
    8.9092  -15.7345   20.1972 C   0  0  0  0  0  0  0  0  0  0  0  0
    9.9084  -16.8432   20.4093 C   0  0  0  0  0  0  0  0  0  0  0  0
    9.5642  -17.5765   21.6687 C   0  0  2  0  0  0  0  0  0  0  0  0
    8.1283  -17.7205   21.7698 N   0  0  0  0  0  0  0  0  0  0  0  0
   10.1103  -16.8638   22.8779 C   0  0  0  0  0  0  0  0  0  0  0  0
   11.1739  -16.2257   22.7570 O   0  0  0  0  0  0  0  0  0  0  0  0
    6.5626  -13.3352   16.8055 N   0  0  0  0  0  0  0  0  0  0  0  0
    9.4495  -16.9099   24.1087 C   0  0  1  0  0  0  0  0  0  0  0  0
    9.9418  -16.2945   25.3248 C   0  0  0  0  0  0  0  0  0  0  0  0
    8.8186  -16.3630   26.3336 C   0  0  0  0  0  0  0  0  0  0  0  0
    7.7135  -15.5092   25.8797 C   0  0  0  0  0  0  0  0  0  0  0  0
    6.5516  -15.8690   25.2297 N   0  0  0  0  0  0  0  0  0  0  0  0
    5.8105  -14.7832   24.9934 C   0  0  0  0  0  0  0  0  0  0  0  0
    6.4587  -13.7065   25.4747 C   0  0  0  0  0  0  0  0  0  0  0  0
    6.1895  -12.3615   25.5187 C   0  0  0  0  0  0  0  0  0  0  0  0
    7.0607  -11.4518   26.0942 C   0  0  0  0  0  0  0  0  0  0  0  0
    8.2453  -11.8775   26.6497 C   0  0  0  0  0  0  0  0  0  0  0  0
    8.5316  -13.2218   26.6145 C   0  0  0  0  0  0  0  0  0  0  0  0
    7.6560  -14.1448   26.0350 C   0  0  0  0  0  0  0  0  0  0  0  0
   11.1808  -16.9789   25.8164 O   0  0  0  0  0  0  0  0  0  0  0  0
   12.1861  -16.3209   26.1671 N   0  0  0  0  0  0  0  0  0  0  0  0
   11.2865  -18.3757   25.9114 C   0  0  1  0  0  0  0  0  0  0  0  0
   12.0558  -19.2204   26.6978 C   0  0  0  0  0  0  0  0  0  0  0  0
   12.0056  -19.2376   28.1800 C   0  0  0  0  0  0  0  0  0  0  0  0
   11.0905  -20.2558   28.7897 C   0  0  0  0  0  0  0  0  0  0  0  0
   11.2044  -20.1667   30.2936 O   0  0  0  0  0  0  0  0  0  0  0  0
   12.0212  -19.3575   30.7990 C   0  0  0  0  0  0  0  0  0  0  0  0
   12.1110  -20.5774   26.1663 O   0  0  0  0  0  0  0  0  0  0  0  0
   12.8729  -21.4281   26.6713 O   0  0  0  0  0  0  0  0  0  0  0  0
   10.4432  -20.9421   31.1277 O   0  0  0  0  0  0  0  0  0  0  0  0
  2  1  1  0
  2  3  2  0
  4  2  1  0
  5  6  1  0
  5  4  1  0
  7  6  1  0
  8  7  1  0
  8  9  1  1
 10  8  1  0
 10 12  1  0
 11 10  2  0
 13 12  1  0
 13 14  1  6
 14 15  1  0
 15 16  2  0
 17 16  1  0
 18 17  1  0
 19 18  2  0
 20 19  1  0
 21 22  1  0
 21 20  2  0
 22 23  2  0
 23 18  1  0
 23 15  1  0
 24 13  1  0
 24 25  2  0
 26 24  1  0
 27 26  1  0
 27 32  1  0
 27 28  1  6
 29 28  1  0
 30 29  1  0
 31 30  2  0
 32 33  2  0
 32 35  1  0
 34 30  1  0
M  END
$$$$
