RWE.pdb
     RDKit          3D

 35 36  0  0  1  0  0  0  0  0999 V2000
    8.6410  -12.3029   18.1840 N   0  0  0  0  0  0  0  0  0  0  0  0
    7.8184  -12.7003   19.2784 C   0  0  0  0  0  0  0  0  0  0  0  0
    7.8069  -11.9776   20.3318 N   0  0  0  0  0  0  0  0  0  0  0  0
    7.0242  -13.8724   19.2106 N   0  0  0  0  0  0  0  0  0  0  0  0
    7.5782  -15.0295   18.5058 C   0  0  0  0  0  0  0  0  0  0  0  0
    7.7299  -16.1212   19.5348 C   0  0  0  0  0  0  0  0  0  0  0  0
    9.0519  -16.0492   20.2559 C   0  0  0  0  0  0  0  0  0  0  0  0
    9.1417  -17.1865   21.2258 C   0  0  2  0  0  0  0  0  0  0  0  0
    7.8374  -17.7913   21.3870 N   0  0  0  0  0  0  0  0  0  0  0  0
    9.6779  -16.7245   22.5552 C   0  0  0  0  0  0  0  0  0  0  0  0
   10.7784  -16.1400   22.5772 O   0  0  0  0  0  0  0  0  0  0  0  0
    7.3499  -12.1852   21.2261 N   0  0  0  0  0  0  0  0  0  0  0  0
    8.9681  -16.9401   23.7398 C   0  0  1  0  0  0  0  0  0  0  0  0
    9.5246  -16.7771   25.0679 C   0  0  0  0  0  0  0  0  0  0  0  0
    8.3577  -16.7347   26.0273 C   0  0  0  0  0  0  0  0  0  0  0  0
    7.4185  -15.6922   25.5944 C   0  0  0  0  0  0  0  0  0  0  0  0
    6.2495  -15.8243   24.8747 N   0  0  0  0  0  0  0  0  0  0  0  0
    5.6939  -14.6238   24.6900 C   0  0  0  0  0  0  0  0  0  0  0  0
    6.4726  -13.6945   25.2743 C   0  0  0  0  0  0  0  0  0  0  0  0
    6.4079  -12.3300   25.4065 C   0  0  0  0  0  0  0  0  0  0  0  0
    7.3769  -11.6062   26.0810 C   0  0  0  0  0  0  0  0  0  0  0  0
    8.4542  -12.2457   26.6497 C   0  0  0  0  0  0  0  0  0  0  0  0
    8.5353  -13.6127   26.5270 C   0  0  0  0  0  0  0  0  0  0  0  0
    7.5603  -14.3487   25.8473 C   0  0  0  0  0  0  0  0  0  0  0  0
   10.4809  -17.8832   25.3952 O   0  0  0  0  0  0  0  0  0  0  0  0
   10.8498  -18.6982   24.5199 N   0  0  0  0  0  0  0  0  0  0  0  0
   11.0114  -18.0687   26.6818 C   0  0  1  0  0  0  0  0  0  0  0  0
   12.2864  -18.3406   27.1553 C   0  0  0  0  0  0  0  0  0  0  0  0
   13.5286  -17.9592   26.4403 C   0  0  0  0  0  0  0  0  0  0  0  0
   13.5852  -18.3289   24.9890 C   0  0  0  0  0  0  0  0  0  0  0  0
   14.6387  -17.4802   24.3165 O   0  0  0  0  0  0  0  0  0  0  0  0
   14.7336  -17.5001   23.0642 C   0  0  0  0  0  0  0  0  0  0  0  0
   12.4141  -18.0863   28.5857 O   0  0  0  0  0  0  0  0  0  0  0  0
   11.4900  -17.5346   29.2188 O   0  0  0  0  0  0  0  0  0  0  0  0
   15.4975  -16.6863   25.0298 O   0  0  0  0  0  0  0  0  0  0  0  0
  2  1  1  0
  2  3  2  0
  4  2  1  0
  5  6  1  0
  5  4  1  0
  7  6  1  0
  8  7  1  0
  8  9  1  1
 10  8  1  0
 10 12  1  0
 11 10  2  0
 13 12  1  0
 13 14  1  1
 14 15  1  0
 15 16  2  0
 17 16  1  0
 18 17  1  0
 19 18  2  0
 20 19  1  0
 21 22  1  0
 21 20  2  0
 22 23  2  0
 23 18  1  0
 23 15  1  0
 24 13  1  0
 24 25  2  0
 26 24  1  0
 27 26  1  0
 27 32  1  0
 27 28  1  1
 29 28  1  0
 30 29  1  0
 31 30  2  0
 32 33  2  0
 32 35  1  0
 34 30  1  0
M  END
$$$$
