RWE.pdb
     RDKit          3D

 35 36  0  0  1  0  0  0  0  0999 V2000
    8.0206  -11.6011   18.5524 N   0  0  0  0  0  0  0  0  0  0  0  0
    8.1549  -12.9672   18.1675 C   0  0  0  0  0  0  0  0  0  0  0  0
    9.1080  -13.2926   17.3814 N   0  0  0  0  0  0  0  0  0  0  0  0
    7.2548  -13.9542   18.6416 N   0  0  0  0  0  0  0  0  0  0  0  0
    7.6988  -15.3487   18.6146 C   0  0  0  0  0  0  0  0  0  0  0  0
    8.2328  -15.6515   19.9918 C   0  0  0  0  0  0  0  0  0  0  0  0
    7.2064  -16.3205   20.8701 C   0  0  0  0  0  0  0  0  0  0  0  0
    7.8729  -17.4011   21.6642 C   0  0  2  0  0  0  0  0  0  0  0  0
    6.8696  -18.2075   22.3245 N   0  0  0  0  0  0  0  0  0  0  0  0
    8.8318  -16.8217   22.6706 C   0  0  0  0  0  0  0  0  0  0  0  0
    9.8259  -16.1995   22.2490 O   0  0  0  0  0  0  0  0  0  0  0  0
    9.3427  -14.2307   17.0402 N   0  0  0  0  0  0  0  0  0  0  0  0
    8.6219  -16.9715   24.0444 C   0  0  1  0  0  0  0  0  0  0  0  0
    9.5062  -16.4523   25.0682 C   0  0  0  0  0  0  0  0  0  0  0  0
    8.7179  -16.4351   26.3574 C   0  0  0  0  0  0  0  0  0  0  0  0
    7.5880  -15.5079   26.2164 C   0  0  0  0  0  0  0  0  0  0  0  0
    6.2631  -15.7901   25.9575 N   0  0  0  0  0  0  0  0  0  0  0  0
    5.5606  -14.6553   25.9058 C   0  0  0  0  0  0  0  0  0  0  0  0
    6.3946  -13.6222   26.1257 C   0  0  0  0  0  0  0  0  0  0  0  0
    6.2426  -12.2598   26.1899 C   0  0  0  0  0  0  0  0  0  0  0  0
    7.3058  -11.4085   26.4405 C   0  0  0  0  0  0  0  0  0  0  0  0
    8.5708  -11.9131   26.6363 C   0  0  0  0  0  0  0  0  0  0  0  0
    8.7417  -13.2760   26.5755 C   0  0  0  0  0  0  0  0  0  0  0  0
    7.6722  -14.1402   26.3229 C   0  0  0  0  0  0  0  0  0  0  0  0
   10.7503  -17.2797   25.1816 O   0  0  0  0  0  0  0  0  0  0  0  0
   10.6891  -18.5208   25.3310 N   0  0  0  0  0  0  0  0  0  0  0  0
   12.0376  -16.7217   25.1283 C   0  0  1  0  0  0  0  0  0  0  0  0
   13.3091  -17.2689   25.0413 C   0  0  0  0  0  0  0  0  0  0  0  0
   14.4443  -16.6074   24.3532 C   0  0  0  0  0  0  0  0  0  0  0  0
   15.7535  -17.3347   24.4086 C   0  0  0  0  0  0  0  0  0  0  0  0
   16.7113  -16.6767   23.4431 O   0  0  0  0  0  0  0  0  0  0  0  0
   16.3206  -15.6923   22.7681 C   0  0  0  0  0  0  0  0  0  0  0  0
   13.7438  -17.8675   26.2981 O   0  0  0  0  0  0  0  0  0  0  0  0
   13.1055  -17.6674   27.3525 O   0  0  0  0  0  0  0  0  0  0  0  0
   17.9971  -17.1198   23.2788 O   0  0  0  0  0  0  0  0  0  0  0  0
  2  1  1  0
  2  3  2  0
  4  2  1  0
  5  6  1  0
  5  4  1  0
  7  6  1  0
  8  7  1  0
  8  9  1  1
 10  8  1  0
 10 12  1  0
 11 10  2  0
 13 12  1  0
 13 14  1  1
 14 15  1  0
 15 16  2  0
 17 16  1  0
 18 17  1  0
 19 18  2  0
 20 19  1  0
 21 22  1  0
 21 20  2  0
 22 23  2  0
 23 18  1  0
 23 15  1  0
 24 13  1  0
 24 25  2  0
 26 24  1  0
 27 26  1  0
 27 32  1  0
 27 28  1  1
 29 28  1  0
 30 29  1  0
 31 30  2  0
 32 33  2  0
 32 35  1  0
 34 30  1  0
M  END
$$$$
