RWE.pdb
     RDKit          3D

 35 36  0  0  1  0  0  0  0  0999 V2000
    6.5873  -14.3459   14.4425 N   0  0  0  0  0  0  0  0  0  0  0  0
    8.0073  -14.4518   14.3727 C   0  0  0  0  0  0  0  0  0  0  0  0
    8.5484  -14.7176   13.2464 N   0  0  0  0  0  0  0  0  0  0  0  0
    8.8134  -14.2674   15.5239 N   0  0  0  0  0  0  0  0  0  0  0  0
    8.3673  -14.8865   16.7730 C   0  0  0  0  0  0  0  0  0  0  0  0
    8.2383  -13.7702   17.7783 C   0  0  0  0  0  0  0  0  0  0  0  0
    9.5023  -13.5671   18.5744 C   0  0  0  0  0  0  0  0  0  0  0  0
    9.7397  -14.7730   19.4299 C   0  0  2  0  0  0  0  0  0  0  0  0
    8.8266  -15.8276   19.0466 N   0  0  0  0  0  0  0  0  0  0  0  0
    9.5812  -14.4416   20.8905 C   0  0  0  0  0  0  0  0  0  0  0  0
   10.1749  -13.4408   21.3368 O   0  0  0  0  0  0  0  0  0  0  0  0
    9.5499  -14.7838   13.0353 N   0  0  0  0  0  0  0  0  0  0  0  0
    8.7910  -15.2288   21.7328 C   0  0  1  0  0  0  0  0  0  0  0  0
    8.5817  -14.9632   23.1418 C   0  0  0  0  0  0  0  0  0  0  0  0
    7.1033  -15.1362   23.4032 C   0  0  0  0  0  0  0  0  0  0  0  0
    6.8157  -14.7662   24.7949 C   0  0  0  0  0  0  0  0  0  0  0  0
    6.4679  -15.5793   25.8531 N   0  0  0  0  0  0  0  0  0  0  0  0
    6.2912  -14.8409   26.9520 C   0  0  0  0  0  0  0  0  0  0  0  0
    6.5153  -13.5501   26.6439 C   0  0  0  0  0  0  0  0  0  0  0  0
    6.4848  -12.3733   27.3494 C   0  0  0  0  0  0  0  0  0  0  0  0
    6.7689  -11.1518   26.7619 C   0  0  0  0  0  0  0  0  0  0  0  0
    7.0966  -11.0803   25.4275 C   0  0  0  0  0  0  0  0  0  0  0  0
    7.1319  -12.2496   24.7051 C   0  0  0  0  0  0  0  0  0  0  0  0
    6.8461  -13.4854   25.2927 C   0  0  0  0  0  0  0  0  0  0  0  0
    9.4130  -15.8722   23.9949 O   0  0  0  0  0  0  0  0  0  0  0  0
    9.6287  -15.6091   25.1994 N   0  0  0  0  0  0  0  0  0  0  0  0
    9.9902  -17.0536   23.5026 C   0  0  2  0  0  0  0  0  0  0  0  0
   11.0386  -17.8523   23.9346 C   0  0  0  0  0  0  0  0  0  0  0  0
   12.4347  -17.7084   23.4548 C   0  0  0  0  0  0  0  0  0  0  0  0
   13.2509  -16.6494   24.1318 C   0  0  0  0  0  0  0  0  0  0  0  0
   14.5694  -16.5197   23.4056 O   0  0  0  0  0  0  0  0  0  0  0  0
   14.8155  -17.2860   22.4414 C   0  0  0  0  0  0  0  0  0  0  0  0
   11.0074  -18.0794   25.3748 O   0  0  0  0  0  0  0  0  0  0  0  0
   11.8884  -18.7688   25.9296 O   0  0  0  0  0  0  0  0  0  0  0  0
   15.5092  -15.5902   23.7650 O   0  0  0  0  0  0  0  0  0  0  0  0
  2  1  1  0
  2  3  2  0
  4  2  1  0
  5  6  1  0
  5  4  1  0
  7  6  1  0
  8  7  1  0
  8  9  1  6
 10  8  1  0
 10 12  1  0
 11 10  2  0
 13 12  1  0
 13 14  1  1
 14 15  1  0
 15 16  2  0
 17 16  1  0
 18 17  1  0
 19 18  2  0
 20 19  1  0
 21 22  1  0
 21 20  2  0
 22 23  2  0
 23 18  1  0
 23 15  1  0
 24 13  1  0
 24 25  2  0
 26 24  1  0
 27 26  1  0
 27 32  1  0
 27 28  1  6
 29 28  1  0
 30 29  1  0
 31 30  2  0
 32 33  2  0
 32 35  1  0
 34 30  1  0
M  END
$$$$
