RWE.pdb
     RDKit          3D

 35 36  0  0  1  0  0  0  0  0999 V2000
    8.8732  -14.8349   13.3995 N   0  0  0  0  0  0  0  0  0  0  0  0
    8.2686  -13.6104   13.8085 C   0  0  0  0  0  0  0  0  0  0  0  0
    7.7614  -12.8485   12.9171 N   0  0  0  0  0  0  0  0  0  0  0  0
    8.2245  -13.2350   15.1746 N   0  0  0  0  0  0  0  0  0  0  0  0
    8.9152  -14.0933   16.1383 C   0  0  0  0  0  0  0  0  0  0  0  0
    7.8411  -14.7595   16.9604 C   0  0  0  0  0  0  0  0  0  0  0  0
    7.9341  -14.4027   18.4221 C   0  0  0  0  0  0  0  0  0  0  0  0
    8.7258  -15.4565   19.1327 C   0  0  2  0  0  0  0  0  0  0  0  0
    8.0637  -16.7355   18.9969 N   0  0  0  0  0  0  0  0  0  0  0  0
    8.9102  -15.1085   20.5863 C   0  0  0  0  0  0  0  0  0  0  0  0
    9.6140  -14.1205   20.8724 O   0  0  0  0  0  0  0  0  0  0  0  0
    7.3383  -11.9243   13.0534 N   0  0  0  0  0  0  0  0  0  0  0  0
    8.3121  -15.8667   21.5968 C   0  0  1  0  0  0  0  0  0  0  0  0
    8.4303  -15.5811   23.0125 C   0  0  0  0  0  0  0  0  0  0  0  0
    7.0489  -15.2082   23.4989 C   0  0  0  0  0  0  0  0  0  0  0  0
    7.1176  -14.8718   24.9266 C   0  0  0  0  0  0  0  0  0  0  0  0
    7.0584  -15.7123   26.0183 N   0  0  0  0  0  0  0  0  0  0  0  0
    7.1560  -14.9996   27.1437 C   0  0  0  0  0  0  0  0  0  0  0  0
    7.2792  -13.6990   26.8204 C   0  0  0  0  0  0  0  0  0  0  0  0
    7.4134  -12.5375   27.5390 C   0  0  0  0  0  0  0  0  0  0  0  0
    7.5249  -11.2995   26.9284 C   0  0  0  0  0  0  0  0  0  0  0  0
    7.5039  -11.1950   25.5567 C   0  0  0  0  0  0  0  0  0  0  0  0
    7.3700  -12.3486   24.8207 C   0  0  0  0  0  0  0  0  0  0  0  0
    7.2571  -13.6010   25.4314 C   0  0  0  0  0  0  0  0  0  0  0  0
    8.9907  -16.7538   23.7579 O   0  0  0  0  0  0  0  0  0  0  0  0
    8.4019  -17.8583   23.7610 N   0  0  0  0  0  0  0  0  0  0  0  0
   10.1894  -16.6851   24.4856 C   0  0  1  0  0  0  0  0  0  0  0  0
   11.0354  -17.6463   25.0187 C   0  0  0  0  0  0  0  0  0  0  0  0
   12.4177  -17.8845   24.5368 C   0  0  0  0  0  0  0  0  0  0  0  0
   13.3615  -16.7275   24.6654 C   0  0  0  0  0  0  0  0  0  0  0  0
   14.0680  -16.5330   23.3442 O   0  0  0  0  0  0  0  0  0  0  0  0
   13.8691  -17.3557   22.4163 C   0  0  0  0  0  0  0  0  0  0  0  0
   10.9811  -17.6882   26.4755 O   0  0  0  0  0  0  0  0  0  0  0  0
   10.3201  -16.8415   27.1122 O   0  0  0  0  0  0  0  0  0  0  0  0
   14.9218  -15.4847   23.1235 O   0  0  0  0  0  0  0  0  0  0  0  0
  2  1  1  0
  2  3  2  0
  4  2  1  0
  5  6  1  0
  5  4  1  0
  7  6  1  0
  8  7  1  0
  8  9  1  1
 10  8  1  0
 10 12  1  0
 11 10  2  0
 13 12  1  0
 13 14  1  1
 14 15  1  0
 15 16  2  0
 17 16  1  0
 18 17  1  0
 19 18  2  0
 20 19  1  0
 21 22  1  0
 21 20  2  0
 22 23  2  0
 23 18  1  0
 23 15  1  0
 24 13  1  0
 24 25  2  0
 26 24  1  0
 27 26  1  0
 27 32  1  0
 27 28  1  1
 29 28  1  0
 30 29  1  0
 31 30  2  0
 32 33  2  0
 32 35  1  0
 34 30  1  0
M  END
$$$$
