HIS.pdb
     RDKit          3D

 25 25  0  0  1  0  0  0  0  0999 V2000
   22.1862  -20.4284  -14.3940 N   0  0  0  0  0  0  0  0  0  0  0  0
   21.4033  -19.9767  -13.2859 C   0  0  1  0  0  0  0  0  0  0  0  0
   20.0111  -19.6622  -13.7259 C   0  0  0  0  0  0  0  0  0  0  0  0
   20.0561  -18.5294  -14.6822 C   0  0  0  0  0  0  0  0  0  0  0  0
   20.1930  -17.1752  -14.4657 C   0  0  0  0  0  0  0  0  0  0  0  0
   20.1888  -16.4928  -15.6277 N   0  0  0  0  0  0  0  0  0  0  0  0
   20.0485  -17.4197  -16.5861 C   0  0  0  0  0  0  0  0  0  0  0  0
   19.9676  -18.6420  -16.0402 N   0  0  0  0  0  0  0  0  0  0  0  0
   21.4657  -20.8691  -12.1194 C   0  0  0  0  0  0  0  0  0  0  0  0
   21.2899  -22.1067  -12.2574 O   0  0  0  0  0  0  0  0  0  0  0  0
   25.3729  -20.2061   -8.3208 C   0  0  0  0  0  0  0  0  0  0  0  0
   24.3752  -20.8480   -9.2144 C   0  0  0  0  0  0  0  0  0  0  0  0
   22.9900  -20.9693   -8.7088 C   0  0  2  0  0  0  0  0  0  0  0  0
   22.8891  -21.9734   -7.5552 C   0  0  0  0  0  0  0  0  0  0  0  0
   21.9249  -21.3284   -9.6792 C   0  0  2  0  0  0  0  0  0  0  0  0
   21.7236  -20.4198  -10.7711 N   0  0  0  0  0  0  0  0  0  0  0  0
   20.6370  -21.6918   -9.0130 C   0  0  0  0  0  0  0  0  0  0  0  0
   19.8269  -20.8057   -8.6111 O   0  0  0  0  0  0  0  0  0  0  0  0
   17.3790  -25.2164   -8.1387 O   0  0  0  0  0  0  0  0  0  0  0  0
   18.5806  -24.7783   -8.6666 C   0  0  0  0  0  0  0  0  0  0  0  0
   18.9473  -23.3820   -8.2251 C   0  0  2  0  0  0  0  0  0  0  0  0
   20.2574  -23.0424   -8.7978 N   0  0  0  0  0  0  0  0  0  0  0  0
   19.1348  -23.4217   -6.7511 C   0  0  0  0  0  0  0  0  0  0  0  0
   18.1410  -23.1642   -5.8357 O   0  0  0  0  0  0  0  0  0  0  0  0
   20.2816  -23.7107   -6.3228 O   0  0  0  0  0  0  0  0  0  0  0  0
  2  9  1  0
  2  1  1  6
  3  2  1  0
  4  3  1  0
  5  4  2  0
  6  5  1  0
  7  6  1  0
  7  8  2  0
  8  4  1  0
  9 10  2  0
 11 12  1  0
 12 13  1  0
 13 15  1  0
 13 14  1  1
 15 16  1  6
 16  9  1  0
 17 22  1  0
 17 15  1  0
 18 17  2  0
 20 19  1  0
 21 22  1  0
 21 20  1  6
 23 21  1  0
 24 23  1  0
 25 23  2  0
M  END
$$$$
