HIS.pdb
     RDKit          3D

 25 25  0  0  1  0  0  0  0  0999 V2000
   14.8392  -21.8435    0.8769 N   0  0  0  0  0  0  0  0  0  0  0  0
   14.9809  -21.1173    2.1006 C   0  0  1  0  0  0  0  0  0  0  0  0
   14.0361  -21.6436    3.1306 C   0  0  0  0  0  0  0  0  0  0  0  0
   12.6486  -21.3255    2.7140 C   0  0  0  0  0  0  0  0  0  0  0  0
   12.1765  -20.5831    1.6530 C   0  0  0  0  0  0  0  0  0  0  0  0
   10.8293  -20.5510    1.6417 N   0  0  0  0  0  0  0  0  0  0  0  0
   10.4455  -21.2770    2.7013 C   0  0  0  0  0  0  0  0  0  0  0  0
   11.5184  -21.7477    3.3537 N   0  0  0  0  0  0  0  0  0  0  0  0
   16.3708  -21.0211    2.5696 C   0  0  0  0  0  0  0  0  0  0  0  0
   17.1514  -21.9993    2.4453 O   0  0  0  0  0  0  0  0  0  0  0  0
   19.8029  -17.0442    1.2630 C   0  0  0  0  0  0  0  0  0  0  0  0
   19.1315  -18.2980    1.6909 C   0  0  0  0  0  0  0  0  0  0  0  0
   19.0653  -18.5707    3.1436 C   0  0  2  0  0  0  0  0  0  0  0  0
   20.4606  -18.6724    3.7697 C   0  0  0  0  0  0  0  0  0  0  0  0
   18.3098  -19.7679    3.5923 C   0  0  2  0  0  0  0  0  0  0  0  0
   16.9355  -19.8441    3.1874 N   0  0  0  0  0  0  0  0  0  0  0  0
   18.4756  -20.0400    5.0528 C   0  0  0  0  0  0  0  0  0  0  0  0
   17.7587  -19.4591    5.9196 O   0  0  0  0  0  0  0  0  0  0  0  0
   20.3467  -22.9906    8.4565 O   0  0  0  0  0  0  0  0  0  0  0  0
   20.1745  -22.6225    7.1339 C   0  0  0  0  0  0  0  0  0  0  0  0
   19.5488  -21.2578    6.9758 C   0  0  2  0  0  0  0  0  0  0  0  0
   19.4405  -20.9594    5.5408 N   0  0  0  0  0  0  0  0  0  0  0  0
   20.5055  -20.2676    7.5359 C   0  0  0  0  0  0  0  0  0  0  0  0
   20.3622  -19.6577    8.7604 O   0  0  0  0  0  0  0  0  0  0  0  0
   21.5089  -19.9749    6.8362 O   0  0  0  0  0  0  0  0  0  0  0  0
  2  9  1  0
  2  1  1  6
  3  2  1  0
  4  3  1  0
  5  4  2  0
  6  5  1  0
  7  6  1  0
  7  8  2  0
  8  4  1  0
  9 10  2  0
 11 12  1  0
 12 13  1  0
 13 15  1  0
 13 14  1  6
 15 16  1  1
 16  9  1  0
 17 22  1  0
 17 15  1  0
 18 17  2  0
 20 19  1  0
 21 22  1  0
 21 20  1  6
 23 21  1  0
 24 23  1  0
 25 23  2  0
M  END
$$$$
