HIS.pdb
     RDKit          3D

 25 25  0  0  1  0  0  0  0  0999 V2000
   28.1233  -21.4790  -16.1097 N   0  0  0  0  0  0  0  0  0  0  0  0
   27.2819  -20.4282  -15.6270 C   0  0  1  0  0  0  0  0  0  0  0  0
   26.8261  -19.5654  -16.7577 C   0  0  0  0  0  0  0  0  0  0  0  0
   28.0068  -18.8931  -17.3525 C   0  0  0  0  0  0  0  0  0  0  0  0
   28.7083  -19.1639  -18.5075 C   0  0  0  0  0  0  0  0  0  0  0  0
   29.7229  -18.2934  -18.6772 N   0  0  0  0  0  0  0  0  0  0  0  0
   29.6641  -17.4662  -17.6238 C   0  0  0  0  0  0  0  0  0  0  0  0
   28.6454  -17.8090  -16.8218 N   0  0  0  0  0  0  0  0  0  0  0  0
   26.1872  -20.8999  -14.7666 C   0  0  0  0  0  0  0  0  0  0  0  0
   25.4997  -21.8973  -15.1043 O   0  0  0  0  0  0  0  0  0  0  0  0
   26.4852  -20.5902   -9.2045 C   0  0  0  0  0  0  0  0  0  0  0  0
   26.1954  -21.0630  -10.5823 C   0  0  0  0  0  0  0  0  0  0  0  0
   24.9423  -20.5914  -11.2122 C   0  0  2  0  0  0  0  0  0  0  0  0
   23.7036  -21.1958  -10.5419 C   0  0  0  0  0  0  0  0  0  0  0  0
   24.7784  -20.7983  -12.6735 C   0  0  2  0  0  0  0  0  0  0  0  0
   25.8228  -20.2840  -13.5121 N   0  0  0  0  0  0  0  0  0  0  0  0
   23.4238  -20.3990  -13.1637 C   0  0  0  0  0  0  0  0  0  0  0  0
   23.0775  -19.1833  -13.2342 O   0  0  0  0  0  0  0  0  0  0  0  0
   19.9470  -23.0299  -14.2863 O   0  0  0  0  0  0  0  0  0  0  0  0
   20.6179  -22.0394  -14.9814 C   0  0  0  0  0  0  0  0  0  0  0  0
   21.1475  -20.9439  -14.0879 C   0  0  2  0  0  0  0  0  0  0  0  0
   22.4607  -21.3575  -13.5737 N   0  0  0  0  0  0  0  0  0  0  0  0
   20.2455  -20.8630  -12.9093 C   0  0  0  0  0  0  0  0  0  0  0  0
   19.0997  -20.1036  -12.8603 O   0  0  0  0  0  0  0  0  0  0  0  0
   20.5594  -21.5371  -11.8948 O   0  0  0  0  0  0  0  0  0  0  0  0
  2  9  1  0
  2  1  1  6
  3  2  1  0
  4  3  1  0
  5  4  2  0
  6  5  1  0
  7  6  1  0
  7  8  2  0
  8  4  1  0
  9 10  2  0
 11 12  1  0
 12 13  1  0
 13 15  1  0
 13 14  1  1
 15 16  1  6
 16  9  1  0
 17 22  1  0
 17 15  1  0
 18 17  2  0
 20 19  1  0
 21 22  1  0
 21 20  1  6
 23 21  1  0
 24 23  1  0
 25 23  2  0
M  END
$$$$
