HIS.pdb
     RDKit          3D

 25 25  0  0  1  0  0  0  0  0999 V2000
   23.9701  -20.7727  -14.6751 N   0  0  0  0  0  0  0  0  0  0  0  0
   23.0451  -20.1752  -13.7628 C   0  0  1  0  0  0  0  0  0  0  0  0
   21.7787  -19.8141  -14.4675 C   0  0  0  0  0  0  0  0  0  0  0  0
   22.0830  -18.8050  -15.5110 C   0  0  0  0  0  0  0  0  0  0  0  0
   22.1486  -17.4301  -15.4400 C   0  0  0  0  0  0  0  0  0  0  0  0
   22.4648  -16.8947  -16.6355 N   0  0  0  0  0  0  0  0  0  0  0  0
   22.6003  -17.9360  -17.4689 C   0  0  0  0  0  0  0  0  0  0  0  0
   22.3761  -19.0851  -16.8150 N   0  0  0  0  0  0  0  0  0  0  0  0
   22.8351  -20.9620  -12.5388 C   0  0  0  0  0  0  0  0  0  0  0  0
   22.6494  -22.2039  -12.6071 O   0  0  0  0  0  0  0  0  0  0  0  0
   25.6681  -19.6290   -8.1336 C   0  0  0  0  0  0  0  0  0  0  0  0
   24.9818  -20.5744   -9.0508 C   0  0  0  0  0  0  0  0  0  0  0  0
   23.5282  -20.7725   -8.8580 C   0  0  2  0  0  0  0  0  0  0  0  0
   23.2320  -21.7646   -7.7279 C   0  0  0  0  0  0  0  0  0  0  0  0
   22.7251  -21.2090  -10.0283 C   0  0  2  0  0  0  0  0  0  0  0  0
   22.8248  -20.3995  -11.2086 N   0  0  0  0  0  0  0  0  0  0  0  0
   21.3029  -21.5031   -9.6738 C   0  0  0  0  0  0  0  0  0  0  0  0
   20.4668  -20.5751   -9.4679 O   0  0  0  0  0  0  0  0  0  0  0  0
   18.0703  -24.9528   -8.3706 O   0  0  0  0  0  0  0  0  0  0  0  0
   19.3367  -24.5812   -8.7859 C   0  0  0  0  0  0  0  0  0  0  0  0
   19.4575  -23.1032   -9.0677 C   0  0  2  0  0  0  0  0  0  0  0  0
   20.8188  -22.8316   -9.5505 N   0  0  0  0  0  0  0  0  0  0  0  0
   19.3281  -22.3953   -7.7671 C   0  0  0  0  0  0  0  0  0  0  0  0
   18.1768  -21.7839   -7.3282 O   0  0  0  0  0  0  0  0  0  0  0  0
   20.3441  -22.3585   -7.0264 O   0  0  0  0  0  0  0  0  0  0  0  0
  2  9  1  0
  2  1  1  6
  3  2  1  0
  4  3  1  0
  5  4  2  0
  6  5  1  0
  7  6  1  0
  7  8  2  0
  8  4  1  0
  9 10  2  0
 11 12  1  0
 12 13  1  0
 13 15  1  0
 13 14  1  1
 15 16  1  6
 16  9  1  0
 17 22  1  0
 17 15  1  0
 18 17  2  0
 20 19  1  0
 21 22  1  0
 21 20  1  1
 23 21  1  0
 24 23  1  0
 25 23  2  0
M  END
$$$$
