HIS.pdb
     RDKit          3D

 25 25  0  0  1  0  0  0  0  0999 V2000
   19.8264  -11.2572  -17.9200 N   0  0  0  0  0  0  0  0  0  0  0  0
   20.8179  -10.2270  -17.9418 C   0  0  1  0  0  0  0  0  0  0  0  0
   20.9365   -9.6478  -19.3134 C   0  0  0  0  0  0  0  0  0  0  0  0
   21.3878  -10.7107  -20.2441 C   0  0  0  0  0  0  0  0  0  0  0  0
   20.6729  -11.5120  -21.1081 C   0  0  0  0  0  0  0  0  0  0  0  0
   21.4854  -12.3517  -21.7794 N   0  0  0  0  0  0  0  0  0  0  0  0
   22.7222  -12.0812  -21.3384 C   0  0  0  0  0  0  0  0  0  0  0  0
   22.6836  -11.1038  -20.4211 N   0  0  0  0  0  0  0  0  0  0  0  0
   20.6397   -9.2171  -16.8885 C   0  0  0  0  0  0  0  0  0  0  0  0
   19.5024   -9.0118  -16.3924 O   0  0  0  0  0  0  0  0  0  0  0  0
   22.6125   -9.7652  -12.2649 C   0  0  0  0  0  0  0  0  0  0  0  0
   21.8513   -9.2970  -13.4512 C   0  0  0  0  0  0  0  0  0  0  0  0
   22.1522   -7.9401  -13.9585 C   0  0  2  0  0  0  0  0  0  0  0  0
   21.8074   -6.8567  -12.9306 C   0  0  0  0  0  0  0  0  0  0  0  0
   21.5294   -7.5234  -15.2405 C   0  0  2  0  0  0  0  0  0  0  0  0
   21.7107   -8.4079  -16.3554 N   0  0  0  0  0  0  0  0  0  0  0  0
   21.8405   -6.1058  -15.5985 C   0  0  0  0  0  0  0  0  0  0  0  0
   23.0236   -5.7310  -15.8490 O   0  0  0  0  0  0  0  0  0  0  0  0
   18.7526   -3.4527  -15.9880 O   0  0  0  0  0  0  0  0  0  0  0  0
   19.9095   -3.1069  -16.6636 C   0  0  0  0  0  0  0  0  0  0  0  0
   21.1497   -3.7329  -16.0729 C   0  0  2  0  0  0  0  0  0  0  0  0
   20.8306   -5.1115  -15.6759 N   0  0  0  0  0  0  0  0  0  0  0  0
   21.4578   -2.9989  -14.8176 C   0  0  0  0  0  0  0  0  0  0  0  0
   22.0130   -1.7413  -14.7709 O   0  0  0  0  0  0  0  0  0  0  0  0
   21.1895   -3.5744  -13.7318 O   0  0  0  0  0  0  0  0  0  0  0  0
  2  9  1  0
  2  1  1  6
  3  2  1  0
  4  3  1  0
  5  4  2  0
  6  5  1  0
  7  6  1  0
  7  8  2  0
  8  4  1  0
  9 10  2  0
 11 12  1  0
 12 13  1  0
 13 15  1  0
 13 14  1  1
 15 16  1  6
 16  9  1  0
 17 22  1  0
 17 15  1  0
 18 17  2  0
 20 19  1  0
 21 22  1  0
 21 20  1  1
 23 21  1  0
 24 23  1  0
 25 23  2  0
M  END
$$$$
