HIS.pdb
     RDKit          3D

 25 25  0  0  1  0  0  0  0  0999 V2000
   23.0143  -13.8955  -17.5052 N   0  0  0  0  0  0  0  0  0  0  0  0
   23.2263  -12.6638  -16.8104 C   0  0  1  0  0  0  0  0  0  0  0  0
   24.5560  -12.0860  -17.1693 C   0  0  0  0  0  0  0  0  0  0  0  0
   25.6150  -13.0556  -16.7976 C   0  0  0  0  0  0  0  0  0  0  0  0
   26.0725  -13.4567  -15.5609 C   0  0  0  0  0  0  0  0  0  0  0  0
   27.0558  -14.3707  -15.6778 N   0  0  0  0  0  0  0  0  0  0  0  0
   27.2224  -14.5500  -16.9959 C   0  0  0  0  0  0  0  0  0  0  0  0
   26.3705  -13.7728  -17.6805 N   0  0  0  0  0  0  0  0  0  0  0  0
   22.1137  -11.7127  -16.9469 C   0  0  0  0  0  0  0  0  0  0  0  0
   21.6025  -11.4921  -18.0746 O   0  0  0  0  0  0  0  0  0  0  0  0
   17.5358  -12.6705  -14.9653 C   0  0  0  0  0  0  0  0  0  0  0  0
   18.6173  -12.0468  -15.7699 C   0  0  0  0  0  0  0  0  0  0  0  0
   19.1230  -10.7303  -15.3224 C   0  0  2  0  0  0  0  0  0  0  0  0
   18.0518   -9.6396  -15.4326 C   0  0  0  0  0  0  0  0  0  0  0  0
   20.3434  -10.1952  -15.9778 C   0  0  2  0  0  0  0  0  0  0  0  0
   21.5364  -10.9808  -15.8437 N   0  0  0  0  0  0  0  0  0  0  0  0
   20.5861   -8.7556  -15.6564 C   0  0  0  0  0  0  0  0  0  0  0  0
   20.9695   -8.3899  -14.5066 O   0  0  0  0  0  0  0  0  0  0  0  0
   19.6726   -5.8559  -18.4359 O   0  0  0  0  0  0  0  0  0  0  0  0
   20.7214   -5.5396  -17.5907 C   0  0  0  0  0  0  0  0  0  0  0  0
   20.7017   -6.3262  -16.3025 C   0  0  2  0  0  0  0  0  0  0  0  0
   20.4003   -7.7293  -16.6191 N   0  0  0  0  0  0  0  0  0  0  0  0
   19.5561   -5.8254  -15.4987 C   0  0  0  0  0  0  0  0  0  0  0  0
   19.5577   -4.6402  -14.8007 O   0  0  0  0  0  0  0  0  0  0  0  0
   18.5216   -6.5399  -15.4606 O   0  0  0  0  0  0  0  0  0  0  0  0
  2  9  1  0
  2  1  1  6
  3  2  1  0
  4  3  1  0
  5  4  2  0
  6  5  1  0
  7  6  1  0
  7  8  2  0
  8  4  1  0
  9 10  2  0
 11 12  1  0
 12 13  1  0
 13 15  1  0
 13 14  1  6
 15 16  1  1
 16  9  1  0
 17 22  1  0
 17 15  1  0
 18 17  2  0
 20 19  1  0
 21 22  1  0
 21 20  1  6
 23 21  1  0
 24 23  1  0
 25 23  2  0
M  END
$$$$
