HIS.pdb
     RDKit          3D

 25 25  0  0  1  0  0  0  0  0999 V2000
   20.5746  -20.8424  -12.0292 N   0  0  0  0  0  0  0  0  0  0  0  0
   21.3758  -21.4440  -13.0495 C   0  0  1  0  0  0  0  0  0  0  0  0
   20.5726  -21.6415  -14.2932 C   0  0  0  0  0  0  0  0  0  0  0  0
   19.4712  -22.5921  -14.0053 C   0  0  0  0  0  0  0  0  0  0  0  0
   19.4136  -23.9640  -14.1250 C   0  0  0  0  0  0  0  0  0  0  0  0
   18.2091  -24.4361  -13.7476 N   0  0  0  0  0  0  0  0  0  0  0  0
   17.4994  -23.3575  -13.3869 C   0  0  0  0  0  0  0  0  0  0  0  0
   18.2368  -22.2471  -13.5341 N   0  0  0  0  0  0  0  0  0  0  0  0
   22.6541  -20.7544  -13.2763 C   0  0  0  0  0  0  0  0  0  0  0  0
   22.7382  -19.5086  -13.1259 O   0  0  0  0  0  0  0  0  0  0  0  0
   26.8126  -21.5437  -10.3613 C   0  0  0  0  0  0  0  0  0  0  0  0
   25.7923  -21.0897  -11.3405 C   0  0  0  0  0  0  0  0  0  0  0  0
   26.1645  -21.1209  -12.7721 C   0  0  2  0  0  0  0  0  0  0  0  0
   27.3943  -20.2531  -13.0615 C   0  0  0  0  0  0  0  0  0  0  0  0
   25.1309  -20.7386  -13.7675 C   0  0  2  0  0  0  0  0  0  0  0  0
   23.8721  -21.4206  -13.6744 N   0  0  0  0  0  0  0  0  0  0  0  0
   25.6552  -20.7268  -15.1673 C   0  0  0  0  0  0  0  0  0  0  0  0
   26.1301  -21.7700  -15.7048 O   0  0  0  0  0  0  0  0  0  0  0  0
   24.4387  -17.9422  -17.8479 O   0  0  0  0  0  0  0  0  0  0  0  0
   25.7770  -18.2585  -18.0008 C   0  0  0  0  0  0  0  0  0  0  0  0
   26.1564  -19.5623  -17.3412 C   0  0  2  0  0  0  0  0  0  0  0  0
   25.6476  -19.5511  -15.9624 N   0  0  0  0  0  0  0  0  0  0  0  0
   27.6389  -19.5880  -17.2377 C   0  0  0  0  0  0  0  0  0  0  0  0
   28.3558  -18.9980  -16.2229 O   0  0  0  0  0  0  0  0  0  0  0  0
   28.2703  -20.1916  -18.1429 O   0  0  0  0  0  0  0  0  0  0  0  0
  2  9  1  0
  2  1  1  1
  3  2  1  0
  4  3  1  0
  5  4  2  0
  6  5  1  0
  7  6  1  0
  7  8  2  0
  8  4  1  0
  9 10  2  0
 11 12  1  0
 12 13  1  0
 13 15  1  0
 13 14  1  1
 15 16  1  6
 16  9  1  0
 17 22  1  0
 17 15  1  0
 18 17  2  0
 20 19  1  0
 21 22  1  0
 21 20  1  6
 23 21  1  0
 24 23  1  0
 25 23  2  0
M  END
$$$$
