QDQ.pdb
     RDKit          3D

 27 26  0  0  1  0  0  0  0  0999 V2000
   27.2604  -17.8403  -15.3001 N   0  0  0  0  0  0  0  0  0  0  0  0
   27.9265  -18.9102  -14.6673 C   0  0  0  0  0  0  0  0  0  0  0  0
   29.1448  -18.8019  -14.4096 O   0  0  0  0  0  0  0  0  0  0  0  0
   27.2159  -20.1484  -14.3057 C   0  0  0  0  0  0  0  0  0  0  0  0
   25.7503  -19.9934  -14.6167 C   0  0  0  0  0  0  0  0  0  0  0  0
   24.9770  -21.2661  -14.3326 C   0  0  2  0  0  0  0  0  0  0  0  0
   25.3849  -22.3259  -15.2335 N   0  0  0  0  0  0  0  0  0  0  0  0
   23.5301  -21.0859  -14.4347 C   0  0  0  0  0  0  0  0  0  0  0  0
   22.9296  -21.2940  -15.5192 O   0  0  0  0  0  0  0  0  0  0  0  0
   22.7097  -20.6673  -13.3268 N   0  0  0  0  0  0  0  0  0  0  0  0
   21.3180  -20.3113  -13.5164 C   0  0  1  0  0  0  0  0  0  0  0  0
   20.5938  -20.6414  -12.2315 C   0  0  0  0  0  0  0  0  0  0  0  0
   20.2084  -22.0618  -12.2137 C   0  0  0  0  0  0  0  0  0  0  0  0
   20.6655  -22.7872  -11.2618 O   0  0  0  0  0  0  0  0  0  0  0  0
   21.1595  -18.8462  -13.7315 C   0  0  0  0  0  0  0  0  0  0  0  0
   22.0716  -18.0153  -13.4895 O   0  0  0  0  0  0  0  0  0  0  0  0
   19.4052  -22.7118  -13.1108 O   0  0  0  0  0  0  0  0  0  0  0  0
   23.6645  -17.5842  -16.5490 N   0  0  0  0  0  0  0  0  0  0  0  0
   22.8413  -16.6890  -17.3429 C   0  0  0  0  0  0  0  0  0  0  0  0
   23.4100  -15.8191  -18.0313 O   0  0  0  0  0  0  0  0  0  0  0  0
   21.3797  -16.8182  -17.3218 C   0  0  0  0  0  0  0  0  0  0  0  0
   20.8227  -17.8373  -16.4237 C   0  0  0  0  0  0  0  0  0  0  0  0
   19.8294  -17.4586  -15.4011 C   0  0  2  0  0  0  0  0  0  0  0  0
   19.9331  -18.3439  -14.2309 N   0  0  0  0  0  0  0  0  0  0  0  0
   18.4695  -17.1535  -15.7869 C   0  0  0  0  0  0  0  0  0  0  0  0
   17.7372  -16.0501  -15.4510 O   0  0  0  0  0  0  0  0  0  0  0  0
   17.8825  -18.0199  -16.5313 O   0  0  0  0  0  0  0  0  0  0  0  0
  2  1  1  0
  3  2  2  0
  4  2  1  0
  5  4  1  0
  6  5  1  0
  6  7  1  6
  8  6  1  0
  8  9  2  0
 10 11  1  0
 10  8  1  0
 11 12  1  1
 12 13  1  0
 13 17  1  0
 14 13  2  0
 15 11  1  0
 16 15  2  0
 19 18  1  0
 19 21  1  0
 20 19  2  0
 22 21  1  0
 23 22  1  6
 23 24  1  0
 24 15  1  0
 25 26  1  0
 25 23  1  0
 27 25  2  0
M  END
$$$$
