QDQ.pdb
     RDKit          3D

 27 26  0  0  1  0  0  0  0  0999 V2000
   18.0416  -12.6969  -19.7252 N   0  0  0  0  0  0  0  0  0  0  0  0
   18.2177  -13.2902  -18.4580 C   0  0  0  0  0  0  0  0  0  0  0  0
   17.2607  -13.8984  -17.9320 O   0  0  0  0  0  0  0  0  0  0  0  0
   19.5038  -13.2068  -17.7453 C   0  0  0  0  0  0  0  0  0  0  0  0
   20.4442  -12.3146  -18.5122 C   0  0  0  0  0  0  0  0  0  0  0  0
   21.7607  -12.1265  -17.7845 C   0  0  2  0  0  0  0  0  0  0  0  0
   22.0543  -13.2752  -16.9505 N   0  0  0  0  0  0  0  0  0  0  0  0
   21.7856  -10.9207  -16.9587 C   0  0  0  0  0  0  0  0  0  0  0  0
   21.2105  -10.8927  -15.8414 O   0  0  0  0  0  0  0  0  0  0  0  0
   22.4548   -9.7086  -17.3570 N   0  0  0  0  0  0  0  0  0  0  0  0
   22.4281   -8.5269  -16.5190 C   0  0  1  0  0  0  0  0  0  0  0  0
   23.6882   -7.7446  -16.8101 C   0  0  0  0  0  0  0  0  0  0  0  0
   24.8689   -8.4856  -16.3377 C   0  0  0  0  0  0  0  0  0  0  0  0
   24.6656   -9.5660  -15.6798 O   0  0  0  0  0  0  0  0  0  0  0  0
   21.2844   -7.6404  -16.8712 C   0  0  0  0  0  0  0  0  0  0  0  0
   20.6173   -7.7699  -17.9291 O   0  0  0  0  0  0  0  0  0  0  0  0
   26.1830   -8.1505  -16.5207 O   0  0  0  0  0  0  0  0  0  0  0  0
   16.8654   -7.2565  -18.5800 N   0  0  0  0  0  0  0  0  0  0  0  0
   16.3072   -6.5672  -17.4299 C   0  0  0  0  0  0  0  0  0  0  0  0
   15.1173   -6.1995  -17.4825 O   0  0  0  0  0  0  0  0  0  0  0  0
   17.1375   -6.3170  -16.2461 C   0  0  0  0  0  0  0  0  0  0  0  0
   18.5228   -6.7999  -16.3006 C   0  0  0  0  0  0  0  0  0  0  0  0
   19.6414   -5.8645  -16.0781 C   0  0  2  0  0  0  0  0  0  0  0  0
   20.9139   -6.5969  -15.9882 N   0  0  0  0  0  0  0  0  0  0  0  0
   19.5122   -4.7930  -15.1156 C   0  0  0  0  0  0  0  0  0  0  0  0
   20.1456   -4.6762  -13.9108 O   0  0  0  0  0  0  0  0  0  0  0  0
   18.7090   -3.8413  -15.4298 O   0  0  0  0  0  0  0  0  0  0  0  0
  2  1  1  0
  3  2  2  0
  4  2  1  0
  5  4  1  0
  6  5  1  0
  6  7  1  1
  8  6  1  0
  8  9  2  0
 10 11  1  0
 10  8  1  0
 11 12  1  6
 12 13  1  0
 13 17  1  0
 14 13  2  0
 15 11  1  0
 16 15  2  0
 19 18  1  0
 19 21  1  0
 20 19  2  0
 22 21  1  0
 23 22  1  1
 23 24  1  0
 24 15  1  0
 25 26  1  0
 25 23  1  0
 27 25  2  0
M  END
$$$$
