QDQ.pdb
     RDKit          3D

 27 26  0  0  1  0  0  0  0  0999 V2000
   19.9946  -14.0477  -17.2317 N   0  0  0  0  0  0  0  0  0  0  0  0
   19.3876  -14.3783  -16.0024 C   0  0  0  0  0  0  0  0  0  0  0  0
   19.4382  -15.5595  -15.5965 O   0  0  0  0  0  0  0  0  0  0  0  0
   18.6976  -13.3613  -15.1909 C   0  0  0  0  0  0  0  0  0  0  0  0
   18.7702  -12.0293  -15.8902 C   0  0  0  0  0  0  0  0  0  0  0  0
   17.3924  -11.4977  -16.2329 C   0  0  2  0  0  0  0  0  0  0  0  0
   16.7530  -12.3346  -17.2288 N   0  0  0  0  0  0  0  0  0  0  0  0
   17.4202  -10.1189  -16.7174 C   0  0  0  0  0  0  0  0  0  0  0  0
   18.0953   -9.8053  -17.7302 O   0  0  0  0  0  0  0  0  0  0  0  0
   16.6936   -9.0482  -16.0841 N   0  0  0  0  0  0  0  0  0  0  0  0
   16.7880   -7.6868  -16.5713 C   0  0  1  0  0  0  0  0  0  0  0  0
   15.3879   -7.1176  -16.5795 C   0  0  0  0  0  0  0  0  0  0  0  0
   14.5632   -7.8063  -17.5854 C   0  0  0  0  0  0  0  0  0  0  0  0
   14.7157   -7.4644  -18.8106 O   0  0  0  0  0  0  0  0  0  0  0  0
   17.5890   -6.8366  -15.6475 C   0  0  0  0  0  0  0  0  0  0  0  0
   18.0854   -7.2680  -14.5759 O   0  0  0  0  0  0  0  0  0  0  0  0
   13.6348   -8.7866  -17.3627 O   0  0  0  0  0  0  0  0  0  0  0  0
   22.3123   -6.7113  -14.1602 N   0  0  0  0  0  0  0  0  0  0  0  0
   22.1659   -5.3410  -13.7016 C   0  0  0  0  0  0  0  0  0  0  0  0
   23.0866   -4.8440  -13.0238 O   0  0  0  0  0  0  0  0  0  0  0  0
   20.9583   -4.5770  -14.0352 C   0  0  0  0  0  0  0  0  0  0  0  0
   19.9321   -5.2777  -14.8171 C   0  0  0  0  0  0  0  0  0  0  0  0
   18.6846   -4.5843  -15.1899 C   0  0  2  0  0  0  0  0  0  0  0  0
   17.8145   -5.4764  -15.9714 N   0  0  0  0  0  0  0  0  0  0  0  0
   18.7281   -3.2262  -15.6846 C   0  0  0  0  0  0  0  0  0  0  0  0
   18.8590   -2.0788  -14.9547 O   0  0  0  0  0  0  0  0  0  0  0  0
   18.6326   -3.0822  -16.9572 O   0  0  0  0  0  0  0  0  0  0  0  0
  2  1  1  0
  3  2  2  0
  4  2  1  0
  5  4  1  0
  6  5  1  0
  6  7  1  6
  8  6  1  0
  8  9  2  0
 10 11  1  0
 10  8  1  0
 11 12  1  1
 12 13  1  0
 13 17  1  0
 14 13  2  0
 15 11  1  0
 16 15  2  0
 19 18  1  0
 19 21  1  0
 20 19  2  0
 22 21  1  0
 23 22  1  6
 23 24  1  0
 24 15  1  0
 25 26  1  0
 25 23  1  0
 27 25  2  0
M  END
$$$$
