QDQ.pdb
     RDKit          3D

 27 26  0  0  1  0  0  0  0  0999 V2000
   20.5338  -14.0374  -16.2516 N   0  0  0  0  0  0  0  0  0  0  0  0
   19.2812  -14.6848  -16.2774 C   0  0  0  0  0  0  0  0  0  0  0  0
   19.2101  -15.8870  -15.9425 O   0  0  0  0  0  0  0  0  0  0  0  0
   18.0597  -13.9734  -16.6903 C   0  0  0  0  0  0  0  0  0  0  0  0
   18.3924  -12.5329  -16.9782 C   0  0  0  0  0  0  0  0  0  0  0  0
   17.8960  -11.6106  -15.8822 C   0  0  2  0  0  0  0  0  0  0  0  0
   16.4581  -11.7185  -15.7335 N   0  0  0  0  0  0  0  0  0  0  0  0
   18.2461  -10.2110  -16.1163 C   0  0  0  0  0  0  0  0  0  0  0  0
   18.7711   -9.8505  -17.2000 O   0  0  0  0  0  0  0  0  0  0  0  0
   18.0197   -9.1709  -15.1455 N   0  0  0  0  0  0  0  0  0  0  0  0
   18.3447   -7.7892  -15.4368 C   0  0  1  0  0  0  0  0  0  0  0  0
   17.2885   -6.9333  -14.7763 C   0  0  0  0  0  0  0  0  0  0  0  0
   16.0044   -7.0727  -15.4821 C   0  0  0  0  0  0  0  0  0  0  0  0
   15.9957   -6.8524  -16.7441 O   0  0  0  0  0  0  0  0  0  0  0  0
   19.6487   -7.4015  -14.8308 C   0  0  0  0  0  0  0  0  0  0  0  0
   19.9982   -7.7511  -13.6747 O   0  0  0  0  0  0  0  0  0  0  0  0
   14.7959   -7.4155  -14.9397 O   0  0  0  0  0  0  0  0  0  0  0  0
   24.4398   -6.1178  -18.6873 N   0  0  0  0  0  0  0  0  0  0  0  0
   25.0452   -5.8355  -17.3977 C   0  0  0  0  0  0  0  0  0  0  0  0
   26.2552   -5.5371  -17.3664 O   0  0  0  0  0  0  0  0  0  0  0  0
   24.2390   -5.9062  -16.1736 C   0  0  0  0  0  0  0  0  0  0  0  0
   22.8132   -6.2125  -16.3422 C   0  0  0  0  0  0  0  0  0  0  0  0
   21.9394   -6.3403  -15.1607 C   0  0  2  0  0  0  0  0  0  0  0  0
   20.5520   -6.6022  -15.5732 N   0  0  0  0  0  0  0  0  0  0  0  0
   22.0586   -5.4051  -14.0642 C   0  0  0  0  0  0  0  0  0  0  0  0
   22.8915   -5.4906  -12.9847 O   0  0  0  0  0  0  0  0  0  0  0  0
   21.2929   -4.3750  -14.1108 O   0  0  0  0  0  0  0  0  0  0  0  0
  2  1  1  0
  3  2  2  0
  4  2  1  0
  5  4  1  0
  6  5  1  0
  6  7  1  6
  8  6  1  0
  8  9  2  0
 10 11  1  0
 10  8  1  0
 11 12  1  1
 12 13  1  0
 13 17  1  0
 14 13  2  0
 15 11  1  0
 16 15  2  0
 19 18  1  0
 19 21  1  0
 20 19  2  0
 22 21  1  0
 23 22  1  6
 23 24  1  0
 24 15  1  0
 25 26  1  0
 25 23  1  0
 27 25  2  0
M  END
$$$$
