QDQ.pdb
     RDKit          3D

 27 26  0  0  1  0  0  0  0  0999 V2000
   17.6307  -15.1355  -14.5727 N   0  0  0  0  0  0  0  0  0  0  0  0
   16.3420  -15.1320  -15.1455 C   0  0  0  0  0  0  0  0  0  0  0  0
   15.9164  -16.1717  -15.6936 O   0  0  0  0  0  0  0  0  0  0  0  0
   15.4913  -13.9304  -15.1100 C   0  0  0  0  0  0  0  0  0  0  0  0
   16.1989  -12.8383  -14.3517 C   0  0  0  0  0  0  0  0  0  0  0  0
   15.3277  -11.6078  -14.1928 C   0  0  2  0  0  0  0  0  0  0  0  0
   14.8931  -11.1169  -15.4856 N   0  0  0  0  0  0  0  0  0  0  0  0
   15.9987  -10.5261  -13.4745 C   0  0  0  0  0  0  0  0  0  0  0  0
   16.3922  -10.6850  -12.2913 O   0  0  0  0  0  0  0  0  0  0  0  0
   16.2507   -9.2329  -14.0574 N   0  0  0  0  0  0  0  0  0  0  0  0
   16.9352   -8.1951  -13.3130 C   0  0  1  0  0  0  0  0  0  0  0  0
   17.1484   -7.0348  -14.2578 C   0  0  0  0  0  0  0  0  0  0  0  0
   17.8932   -5.9588  -13.5842 C   0  0  0  0  0  0  0  0  0  0  0  0
   18.8849   -6.2972  -12.8470 O   0  0  0  0  0  0  0  0  0  0  0  0
   16.0924   -7.6863  -12.1956 C   0  0  0  0  0  0  0  0  0  0  0  0
   14.8560   -7.4858  -12.3058 O   0  0  0  0  0  0  0  0  0  0  0  0
   17.6469   -4.6145  -13.6527 O   0  0  0  0  0  0  0  0  0  0  0  0
   12.3525   -9.1733   -9.1715 N   0  0  0  0  0  0  0  0  0  0  0  0
   12.6980   -8.1639   -8.1860 C   0  0  0  0  0  0  0  0  0  0  0  0
   11.9492   -8.0215   -7.1996 O   0  0  0  0  0  0  0  0  0  0  0  0
   13.8999   -7.3410   -8.3639 C   0  0  0  0  0  0  0  0  0  0  0  0
   14.7643   -7.6771   -9.5019 C   0  0  0  0  0  0  0  0  0  0  0  0
   15.9573   -6.8593   -9.7914 C   0  0  2  0  0  0  0  0  0  0  0  0
   16.6905   -7.4088  -10.9421 N   0  0  0  0  0  0  0  0  0  0  0  0
   16.8097   -6.4105   -8.7129 C   0  0  0  0  0  0  0  0  0  0  0  0
   18.1664   -6.5398   -8.6159 O   0  0  0  0  0  0  0  0  0  0  0  0
   16.2236   -5.8224   -7.7330 O   0  0  0  0  0  0  0  0  0  0  0  0
  2  1  1  0
  3  2  2  0
  4  2  1  0
  5  4  1  0
  6  5  1  0
  6  7  1  6
  8  6  1  0
  8  9  2  0
 10 11  1  0
 10  8  1  0
 11 12  1  6
 12 13  1  0
 13 17  1  0
 14 13  2  0
 15 11  1  0
 16 15  2  0
 19 18  1  0
 19 21  1  0
 20 19  2  0
 22 21  1  0
 23 22  1  1
 23 24  1  0
 24 15  1  0
 25 26  1  0
 25 23  1  0
 27 25  2  0
M  END
$$$$
