QDQ.pdb
     RDKit          3D

 27 26  0  0  1  0  0  0  0  0999 V2000
   15.8786  -10.9983  -13.4481 N   0  0  0  0  0  0  0  0  0  0  0  0
   15.6668  -12.1853  -14.1795 C   0  0  0  0  0  0  0  0  0  0  0  0
   14.8466  -13.0260  -13.7517 O   0  0  0  0  0  0  0  0  0  0  0  0
   16.3915  -12.4520  -15.4335 C   0  0  0  0  0  0  0  0  0  0  0  0
   17.3539  -11.3256  -15.7048 C   0  0  0  0  0  0  0  0  0  0  0  0
   18.1987  -11.5910  -16.9353 C   0  0  2  0  0  0  0  0  0  0  0  0
   19.0862  -12.7157  -16.7150 N   0  0  0  0  0  0  0  0  0  0  0  0
   18.9915  -10.4318  -17.3404 C   0  0  0  0  0  0  0  0  0  0  0  0
   20.1211  -10.2146  -16.8335 O   0  0  0  0  0  0  0  0  0  0  0  0
   18.5456   -9.4795  -18.3252 N   0  0  0  0  0  0  0  0  0  0  0  0
   19.3584   -8.3347  -18.6836 C   0  0  1  0  0  0  0  0  0  0  0  0
   18.7429   -7.7196  -19.9194 C   0  0  0  0  0  0  0  0  0  0  0  0
   18.9926   -8.5731  -21.0923 C   0  0  0  0  0  0  0  0  0  0  0  0
   17.9782   -8.9425  -21.7822 O   0  0  0  0  0  0  0  0  0  0  0  0
   19.3192   -7.2907  -17.6224 C   0  0  0  0  0  0  0  0  0  0  0  0
   18.6498   -7.4129  -16.5650 O   0  0  0  0  0  0  0  0  0  0  0  0
   20.2025   -9.0279  -21.5412 O   0  0  0  0  0  0  0  0  0  0  0  0
   21.3553   -7.6163  -13.2051 N   0  0  0  0  0  0  0  0  0  0  0  0
   21.5588   -6.1809  -13.1169 C   0  0  0  0  0  0  0  0  0  0  0  0
   21.9698   -5.7083  -12.0390 O   0  0  0  0  0  0  0  0  0  0  0  0
   21.2810   -5.3244  -14.2756 C   0  0  0  0  0  0  0  0  0  0  0  0
   20.8535   -6.0014  -15.5062 C   0  0  0  0  0  0  0  0  0  0  0  0
   20.4456   -5.2099  -16.6822 C   0  0  2  0  0  0  0  0  0  0  0  0
   20.0626   -6.0971  -17.7912 N   0  0  0  0  0  0  0  0  0  0  0  0
   21.2243   -4.0622  -17.0914 C   0  0  0  0  0  0  0  0  0  0  0  0
   22.2193   -4.0227  -18.0268 O   0  0  0  0  0  0  0  0  0  0  0  0
   20.9487   -2.9517  -16.5079 O   0  0  0  0  0  0  0  0  0  0  0  0
  2  1  1  0
  3  2  2  0
  4  2  1  0
  5  4  1  0
  6  5  1  0
  6  7  1  1
  8  6  1  0
  8  9  2  0
 10 11  1  0
 10  8  1  0
 11 12  1  6
 12 13  1  0
 13 17  1  0
 14 13  2  0
 15 11  1  0
 16 15  2  0
 19 18  1  0
 19 21  1  0
 20 19  2  0
 22 21  1  0
 23 22  1  1
 23 24  1  0
 24 15  1  0
 25 26  1  0
 25 23  1  0
 27 25  2  0
M  END
$$$$
