QDQ.pdb
     RDKit          3D

 27 26  0  0  1  0  0  0  0  0999 V2000
   14.7405  -12.8031  -14.2355 N   0  0  0  0  0  0  0  0  0  0  0  0
   15.0638  -13.8705  -15.0985 C   0  0  0  0  0  0  0  0  0  0  0  0
   14.1725  -14.6865  -15.4183 O   0  0  0  0  0  0  0  0  0  0  0  0
   16.4274  -14.0412  -15.6282 C   0  0  0  0  0  0  0  0  0  0  0  0
   17.3136  -12.9484  -15.0906 C   0  0  0  0  0  0  0  0  0  0  0  0
   17.2253  -11.6885  -15.9292 C   0  0  2  0  0  0  0  0  0  0  0  0
   17.2168  -12.0125  -17.3421 N   0  0  0  0  0  0  0  0  0  0  0  0
   18.3153  -10.7518  -15.6628 C   0  0  0  0  0  0  0  0  0  0  0  0
   18.5437  -10.3437  -14.4960 O   0  0  0  0  0  0  0  0  0  0  0  0
   19.1839  -10.2425  -16.6932 N   0  0  0  0  0  0  0  0  0  0  0  0
   20.2241   -9.2805  -16.3897 C   0  0  1  0  0  0  0  0  0  0  0  0
   21.3850   -9.5722  -17.3127 C   0  0  0  0  0  0  0  0  0  0  0  0
   22.5512   -8.7557  -16.9391 C   0  0  0  0  0  0  0  0  0  0  0  0
   23.5858   -8.8223  -17.6917 O   0  0  0  0  0  0  0  0  0  0  0  0
   19.7793   -7.8912  -16.6891 C   0  0  0  0  0  0  0  0  0  0  0  0
   18.9825   -7.6124  -17.6210 O   0  0  0  0  0  0  0  0  0  0  0  0
   22.6637   -7.9187  -15.8625 O   0  0  0  0  0  0  0  0  0  0  0  0
   15.8440   -2.7951  -17.3757 N   0  0  0  0  0  0  0  0  0  0  0  0
   16.3288   -4.0671  -16.8691 C   0  0  0  0  0  0  0  0  0  0  0  0
   15.6434   -5.0865  -17.0813 O   0  0  0  0  0  0  0  0  0  0  0  0
   17.5934   -4.1315  -16.1275 C   0  0  0  0  0  0  0  0  0  0  0  0
   18.3155   -5.4091  -16.1690 C   0  0  0  0  0  0  0  0  0  0  0  0
   19.7829   -5.4343  -16.0213 C   0  0  2  0  0  0  0  0  0  0  0  0
   20.2637   -6.8192  -15.9004 N   0  0  0  0  0  0  0  0  0  0  0  0
   20.4394   -4.5055  -15.1284 C   0  0  0  0  0  0  0  0  0  0  0  0
   21.3409   -4.7946  -14.1433 O   0  0  0  0  0  0  0  0  0  0  0  0
   20.1404   -3.2655  -15.2787 O   0  0  0  0  0  0  0  0  0  0  0  0
  2  1  1  0
  3  2  2  0
  4  2  1  0
  5  4  1  0
  6  5  1  0
  6  7  1  6
  8  6  1  0
  8  9  2  0
 10 11  1  0
 10  8  1  0
 11 12  1  6
 12 13  1  0
 13 17  1  0
 14 13  2  0
 15 11  1  0
 16 15  2  0
 19 18  1  0
 19 21  1  0
 20 19  2  0
 22 21  1  0
 23 22  1  1
 23 24  1  0
 24 15  1  0
 25 26  1  0
 25 23  1  0
 27 25  2  0
M  END
$$$$
