DGC.pdb
     RDKit          3D

 19 18  0  0  1  0  0  0  0  0999 V2000
   16.0238  -10.7908  -16.4576 N   0  0  0  0  0  0  0  0  0  0  0  0
   15.3828  -10.8979  -15.1337 C   0  0  1  0  0  0  0  0  0  0  0  0
   15.6292  -12.3310  -14.7203 C   0  0  0  0  0  0  0  0  0  0  0  0
   14.7133  -13.3108  -15.3116 C   0  0  0  0  0  0  0  0  0  0  0  0
   15.1343  -14.3912  -15.7963 O   0  0  0  0  0  0  0  0  0  0  0  0
   16.0737   -9.9242  -14.2524 C   0  0  0  0  0  0  0  0  0  0  0  0
   15.7635   -9.8016  -13.0227 O   0  0  0  0  0  0  0  0  0  0  0  0
   13.3461  -13.0838  -15.3592 O   0  0  0  0  0  0  0  0  0  0  0  0
   17.1240   -9.0642  -14.7060 N   0  0  0  0  0  0  0  0  0  0  0  0
   17.9263   -8.2968  -13.7830 C   0  0  0  0  0  0  0  0  0  0  0  0
   18.9846   -7.4974  -14.3750 C   0  0  0  0  0  0  0  0  0  0  0  0
   19.1782   -7.5914  -15.6083 O   0  0  0  0  0  0  0  0  0  0  0  0
   19.7865   -6.6404  -13.6254 N   0  0  0  0  0  0  0  0  0  0  0  0
   20.7761   -5.7479  -14.2133 C   0  0  1  0  0  0  0  0  0  0  0  0
   21.2652   -4.7416  -13.1673 C   0  0  0  0  0  0  0  0  0  0  0  0
   22.5166   -3.6532  -13.9311 S   0  0  0  0  0  0  0  0  0  0  0  0
   21.9302   -6.5468  -14.6710 C   0  0  0  0  0  0  0  0  0  0  0  0
   22.4460   -7.4225  -13.9372 O   0  0  0  0  0  0  0  0  0  0  0  0
   22.4518   -6.3242  -15.9338 O   0  0  0  0  0  0  0  0  0  0  0  0
  2  3  1  0
  2  1  1  6
  3  4  1  0
  4  8  1  0
  4  5  2  0
  6  2  1  0
  7  6  2  0
  9  6  1  0
 10 11  1  0
 10  9  1  0
 11 12  2  0
 13 14  1  0
 13 11  1  0
 14 15  1  1
 16 15  1  0
 17 19  1  0
 17 14  1  0
 18 17  2  0
M  END
$$$$
