DGC.pdb
     RDKit          3D

 19 18  0  0  1  0  0  0  0  0999 V2000
   24.1663  -21.0806  -15.3858 N   0  0  0  0  0  0  0  0  0  0  0  0
   24.5422  -19.7045  -15.0118 C   0  0  1  0  0  0  0  0  0  0  0  0
   23.3768  -19.2174  -14.1812 C   0  0  0  0  0  0  0  0  0  0  0  0
   22.0546  -19.4869  -14.7536 C   0  0  0  0  0  0  0  0  0  0  0  0
   21.5175  -18.6907  -15.5641 O   0  0  0  0  0  0  0  0  0  0  0  0
   25.7966  -19.8104  -14.2260 C   0  0  0  0  0  0  0  0  0  0  0  0
   26.2437  -18.8282  -13.5488 O   0  0  0  0  0  0  0  0  0  0  0  0
   21.3448  -20.6314  -14.4232 O   0  0  0  0  0  0  0  0  0  0  0  0
   26.5864  -21.0027  -14.1672 N   0  0  0  0  0  0  0  0  0  0  0  0
   27.8086  -21.0644  -13.4012 C   0  0  0  0  0  0  0  0  0  0  0  0
   27.6507  -21.1400  -11.9594 C   0  0  0  0  0  0  0  0  0  0  0  0
   28.6399  -21.4823  -11.2727 O   0  0  0  0  0  0  0  0  0  0  0  0
   26.4478  -20.8510  -11.3199 N   0  0  0  0  0  0  0  0  0  0  0  0
   26.2517  -20.9802   -9.8825 C   0  0  1  0  0  0  0  0  0  0  0  0
   27.0674  -19.9161   -9.1419 C   0  0  0  0  0  0  0  0  0  0  0  0
   26.7292  -20.0487   -7.3524 S   0  0  0  0  0  0  0  0  0  0  0  0
   24.8227  -20.7748   -9.5734 C   0  0  0  0  0  0  0  0  0  0  0  0
   24.0394  -20.2823  -10.4190 O   0  0  0  0  0  0  0  0  0  0  0  0
   24.3398  -21.1329   -8.3264 O   0  0  0  0  0  0  0  0  0  0  0  0
  2  3  1  0
  2  1  1  1
  3  4  1  0
  4  8  1  0
  4  5  2  0
  6  2  1  0
  7  6  2  0
  9  6  1  0
 10 11  1  0
 10  9  1  0
 11 12  2  0
 13 14  1  0
 13 11  1  0
 14 15  1  1
 16 15  1  0
 17 19  1  0
 17 14  1  0
 18 17  2  0
M  END
$$$$
