DGC.pdb
     RDKit          3D

 19 18  0  0  1  0  0  0  0  0999 V2000
   18.1380  -11.2084  -15.1100 N   0  0  0  0  0  0  0  0  0  0  0  0
   17.1280  -10.8038  -16.1056 C   0  0  1  0  0  0  0  0  0  0  0  0
   15.8789  -11.5439  -15.6846 C   0  0  0  0  0  0  0  0  0  0  0  0
   15.9503  -13.0020  -15.8171 C   0  0  0  0  0  0  0  0  0  0  0  0
   15.5417  -13.7630  -14.9043 O   0  0  0  0  0  0  0  0  0  0  0  0
   16.9855   -9.3316  -15.9851 C   0  0  0  0  0  0  0  0  0  0  0  0
   16.2721   -8.6622  -16.8013 O   0  0  0  0  0  0  0  0  0  0  0  0
   16.4717  -13.5986  -16.9551 O   0  0  0  0  0  0  0  0  0  0  0  0
   17.6249   -8.5634  -14.9606 N   0  0  0  0  0  0  0  0  0  0  0  0
   17.4868   -7.1279  -14.8927 C   0  0  0  0  0  0  0  0  0  0  0  0
   18.7256   -6.3747  -14.8058 C   0  0  0  0  0  0  0  0  0  0  0  0
   18.6546   -5.1349  -14.6466 O   0  0  0  0  0  0  0  0  0  0  0  0
   19.9780   -6.9769  -14.8959 N   0  0  0  0  0  0  0  0  0  0  0  0
   21.2301   -6.2572  -14.7068 C   0  0  1  0  0  0  0  0  0  0  0  0
   22.3011   -7.2005  -14.1507 C   0  0  0  0  0  0  0  0  0  0  0  0
   21.7549   -7.8247  -12.5240 S   0  0  0  0  0  0  0  0  0  0  0  0
   21.6897   -5.7437  -16.0124 C   0  0  0  0  0  0  0  0  0  0  0  0
   22.6878   -4.9905  -16.0994 O   0  0  0  0  0  0  0  0  0  0  0  0
   21.0052   -6.1012  -17.1614 O   0  0  0  0  0  0  0  0  0  0  0  0
  2  3  1  0
  2  1  1  1
  3  4  1  0
  4  8  1  0
  4  5  2  0
  6  2  1  0
  7  6  2  0
  9  6  1  0
 10 11  1  0
 10  9  1  0
 11 12  2  0
 13 14  1  0
 13 11  1  0
 14 15  1  6
 16 15  1  0
 17 19  1  0
 17 14  1  0
 18 17  2  0
M  END
$$$$
