DGC.pdb
     RDKit          3D

 19 18  0  0  1  0  0  0  0  0999 V2000
   20.0687  -11.8545  -16.8269 N   0  0  0  0  0  0  0  0  0  0  0  0
   20.1942  -11.3389  -18.2029 C   0  0  1  0  0  0  0  0  0  0  0  0
   18.7693  -11.2761  -18.7039 C   0  0  0  0  0  0  0  0  0  0  0  0
   18.1549  -12.5771  -18.9843 C   0  0  0  0  0  0  0  0  0  0  0  0
   18.7895  -13.6495  -18.8208 O   0  0  0  0  0  0  0  0  0  0  0  0
   20.8190   -9.9974  -18.0936 C   0  0  0  0  0  0  0  0  0  0  0  0
   21.0065   -9.2641  -19.1185 O   0  0  0  0  0  0  0  0  0  0  0  0
   16.8492  -12.6753  -19.4409 O   0  0  0  0  0  0  0  0  0  0  0  0
   21.2502   -9.4324  -16.8513 N   0  0  0  0  0  0  0  0  0  0  0  0
   21.8519   -8.1217  -16.7837 C   0  0  0  0  0  0  0  0  0  0  0  0
   21.2356   -7.1875  -15.8581 C   0  0  0  0  0  0  0  0  0  0  0  0
   20.1433   -6.6679  -16.1810 O   0  0  0  0  0  0  0  0  0  0  0  0
   21.8131   -6.8499  -14.6366 N   0  0  0  0  0  0  0  0  0  0  0  0
   21.1689   -5.9876  -13.6553 C   0  0  1  0  0  0  0  0  0  0  0  0
   21.3928   -6.5374  -12.2434 C   0  0  0  0  0  0  0  0  0  0  0  0
   20.5828   -8.1681  -12.1066 S   0  0  0  0  0  0  0  0  0  0  0  0
   21.7681   -4.6406  -13.7344 C   0  0  0  0  0  0  0  0  0  0  0  0
   21.2718   -3.6713  -13.1136 O   0  0  0  0  0  0  0  0  0  0  0  0
   22.8989   -4.4451  -14.5087 O   0  0  0  0  0  0  0  0  0  0  0  0
  2  3  1  0
  2  1  1  1
  3  4  1  0
  4  8  1  0
  4  5  2  0
  6  2  1  0
  7  6  2  0
  9  6  1  0
 10 11  1  0
 10  9  1  0
 11 12  2  0
 13 14  1  0
 13 11  1  0
 14 15  1  1
 16 15  1  0
 17 19  1  0
 17 14  1  0
 18 17  2  0
M  END
$$$$
