DGC.pdb
     RDKit          3D

 19 18  0  0  1  0  0  0  0  0999 V2000
   19.5310  -20.7737  -12.4065 N   0  0  0  0  0  0  0  0  0  0  0  0
   19.5731  -21.3000  -13.7835 C   0  0  1  0  0  0  0  0  0  0  0  0
   18.6992  -20.3483  -14.5683 C   0  0  0  0  0  0  0  0  0  0  0  0
   17.2782  -20.3760  -14.2096 C   0  0  0  0  0  0  0  0  0  0  0  0
   16.7114  -19.3755  -13.7026 O   0  0  0  0  0  0  0  0  0  0  0  0
   20.9939  -21.2506  -14.2090 C   0  0  0  0  0  0  0  0  0  0  0  0
   21.3338  -21.4471  -15.4211 O   0  0  0  0  0  0  0  0  0  0  0  0
   16.5037  -21.5076  -14.4159 O   0  0  0  0  0  0  0  0  0  0  0  0
   22.0731  -20.9815  -13.3080 N   0  0  0  0  0  0  0  0  0  0  0  0
   23.4227  -20.7834  -13.7807 C   0  0  0  0  0  0  0  0  0  0  0  0
   24.3746  -20.2976  -12.7971 C   0  0  0  0  0  0  0  0  0  0  0  0
   24.3876  -19.0723  -12.5407 O   0  0  0  0  0  0  0  0  0  0  0  0
   25.2675  -21.1386  -12.1376 N   0  0  0  0  0  0  0  0  0  0  0  0
   26.4727  -20.6651  -11.4706 C   0  0  1  0  0  0  0  0  0  0  0  0
   26.6271  -21.3533  -10.1110 C   0  0  0  0  0  0  0  0  0  0  0  0
   26.7450  -20.0770   -8.8104 S   0  0  0  0  0  0  0  0  0  0  0  0
   27.6448  -21.0023  -12.3026 C   0  0  0  0  0  0  0  0  0  0  0  0
   27.6464  -22.0135  -13.0433 O   0  0  0  0  0  0  0  0  0  0  0  0
   28.7622  -20.1861  -12.2635 O   0  0  0  0  0  0  0  0  0  0  0  0
  2  3  1  0
  2  1  1  1
  3  4  1  0
  4  8  1  0
  4  5  2  0
  6  2  1  0
  7  6  2  0
  9  6  1  0
 10 11  1  0
 10  9  1  0
 11 12  2  0
 13 14  1  0
 13 11  1  0
 14 15  1  1
 16 15  1  0
 17 19  1  0
 17 14  1  0
 18 17  2  0
M  END
$$$$
