DGC.pdb
     RDKit          3D

 19 18  0  0  1  0  0  0  0  0999 V2000
   19.9355  -13.0745  -17.8084 N   0  0  0  0  0  0  0  0  0  0  0  0
   18.8478  -12.6186  -16.9230 C   0  0  1  0  0  0  0  0  0  0  0  0
   18.7262  -13.7183  -15.8928 C   0  0  0  0  0  0  0  0  0  0  0  0
   17.8883  -14.8518  -16.2951 C   0  0  0  0  0  0  0  0  0  0  0  0
   17.9919  -15.9730  -15.7370 O   0  0  0  0  0  0  0  0  0  0  0  0
   19.2970  -11.3331  -16.3332 C   0  0  0  0  0  0  0  0  0  0  0  0
   18.5722  -10.6902  -15.5057 O   0  0  0  0  0  0  0  0  0  0  0  0
   16.9483  -14.7310  -17.3074 O   0  0  0  0  0  0  0  0  0  0  0  0
   20.5567  -10.7272  -16.6408 N   0  0  0  0  0  0  0  0  0  0  0  0
   20.9030   -9.4121  -16.1563 C   0  0  0  0  0  0  0  0  0  0  0  0
   20.0820   -8.3188  -16.6464 C   0  0  0  0  0  0  0  0  0  0  0  0
   19.7190   -8.3420  -17.8443 O   0  0  0  0  0  0  0  0  0  0  0  0
   19.6907   -7.2537  -15.8390 N   0  0  0  0  0  0  0  0  0  0  0  0
   18.9389   -6.1074  -16.3312 C   0  0  1  0  0  0  0  0  0  0  0  0
   17.5767   -6.0326  -15.6348 C   0  0  0  0  0  0  0  0  0  0  0  0
   16.7199   -7.6326  -15.8346 S   0  0  0  0  0  0  0  0  0  0  0  0
   19.6904   -4.8740  -16.0250 C   0  0  0  0  0  0  0  0  0  0  0  0
   20.7527   -4.9086  -15.3606 O   0  0  0  0  0  0  0  0  0  0  0  0
   19.2124   -3.6573  -16.4804 O   0  0  0  0  0  0  0  0  0  0  0  0
  2  3  1  0
  2  1  1  6
  3  4  1  0
  4  8  1  0
  4  5  2  0
  6  2  1  0
  7  6  2  0
  9  6  1  0
 10 11  1  0
 10  9  1  0
 11 12  2  0
 13 14  1  0
 13 11  1  0
 14 15  1  1
 16 15  1  0
 17 19  1  0
 17 14  1  0
 18 17  2  0
M  END
$$$$
