DGC.pdb
     RDKit          3D

 19 18  0  0  1  0  0  0  0  0999 V2000
   26.0500  -19.2301  -17.9776 N   0  0  0  0  0  0  0  0  0  0  0  0
   25.0232  -18.9887  -16.9469 C   0  0  1  0  0  0  0  0  0  0  0  0
   24.0667  -20.1492  -17.1013 C   0  0  0  0  0  0  0  0  0  0  0  0
   23.1490  -20.0463  -18.2397 C   0  0  0  0  0  0  0  0  0  0  0  0
   23.5262  -19.5810  -19.3445 O   0  0  0  0  0  0  0  0  0  0  0  0
   25.7277  -19.0013  -15.6409 C   0  0  0  0  0  0  0  0  0  0  0  0
   25.1039  -18.8164  -14.5455 O   0  0  0  0  0  0  0  0  0  0  0  0
   21.8286  -20.4585  -18.1419 O   0  0  0  0  0  0  0  0  0  0  0  0
   27.1363  -19.2199  -15.5122 N   0  0  0  0  0  0  0  0  0  0  0  0
   27.7649  -19.3678  -14.2210 C   0  0  0  0  0  0  0  0  0  0  0  0
   27.1309  -20.3048  -13.3102 C   0  0  0  0  0  0  0  0  0  0  0  0
   27.0396  -21.5028  -13.6621 O   0  0  0  0  0  0  0  0  0  0  0  0
   26.6227  -19.9206  -12.0718 N   0  0  0  0  0  0  0  0  0  0  0  0
   26.0209  -20.8518  -11.1273 C   0  0  1  0  0  0  0  0  0  0  0  0
   26.3437  -20.4276   -9.6913 C   0  0  0  0  0  0  0  0  0  0  0  0
   24.9199  -20.8279   -8.6205 S   0  0  0  0  0  0  0  0  0  0  0  0
   24.5552  -20.8329  -11.3035 C   0  0  0  0  0  0  0  0  0  0  0  0
   23.9565  -19.7892  -11.6548 O   0  0  0  0  0  0  0  0  0  0  0  0
   23.8294  -21.9896  -11.0765 O   0  0  0  0  0  0  0  0  0  0  0  0
  2  3  1  0
  2  1  1  6
  3  4  1  0
  4  8  1  0
  4  5  2  0
  6  2  1  0
  7  6  2  0
  9  6  1  0
 10 11  1  0
 10  9  1  0
 11 12  2  0
 13 14  1  0
 13 11  1  0
 14 15  1  1
 16 15  1  0
 17 19  1  0
 17 14  1  0
 18 17  2  0
M  END
$$$$
