DGC.pdb
     RDKit          3D

 19 18  0  0  1  0  0  0  0  0999 V2000
   17.4680  -11.2845  -17.4519 N   0  0  0  0  0  0  0  0  0  0  0  0
   17.5537  -11.2213  -15.9810 C   0  0  1  0  0  0  0  0  0  0  0  0
   17.8390  -12.6471  -15.5673 C   0  0  0  0  0  0  0  0  0  0  0  0
   16.6748  -13.5376  -15.5757 C   0  0  0  0  0  0  0  0  0  0  0  0
   15.5193  -13.1023  -15.8097 O   0  0  0  0  0  0  0  0  0  0  0  0
   18.6744  -10.3015  -15.6645 C   0  0  0  0  0  0  0  0  0  0  0  0
   19.0105  -10.0497  -14.4616 O   0  0  0  0  0  0  0  0  0  0  0  0
   16.8030  -14.8956  -15.3259 O   0  0  0  0  0  0  0  0  0  0  0  0
   19.4519   -9.6392  -16.6672 N   0  0  0  0  0  0  0  0  0  0  0  0
   20.5991   -8.8320  -16.3255 C   0  0  0  0  0  0  0  0  0  0  0  0
   20.3373   -7.6864  -15.4721 C   0  0  0  0  0  0  0  0  0  0  0  0
   19.2507   -7.0805  -15.6112 O   0  0  0  0  0  0  0  0  0  0  0  0
   21.2456   -7.2402  -14.5153 N   0  0  0  0  0  0  0  0  0  0  0  0
   21.0078   -6.0856  -13.6598 C   0  0  1  0  0  0  0  0  0  0  0  0
   21.6305   -6.3157  -12.2794 C   0  0  0  0  0  0  0  0  0  0  0  0
   20.8764   -7.7995  -11.5285 S   0  0  0  0  0  0  0  0  0  0  0  0
   21.6420   -4.8994  -14.2684 C   0  0  0  0  0  0  0  0  0  0  0  0
   22.4078   -5.0065  -15.2550 O   0  0  0  0  0  0  0  0  0  0  0  0
   21.3858   -3.6461  -13.7392 O   0  0  0  0  0  0  0  0  0  0  0  0
  2  3  1  0
  2  1  1  6
  3  4  1  0
  4  8  1  0
  4  5  2  0
  6  2  1  0
  7  6  2  0
  9  6  1  0
 10 11  1  0
 10  9  1  0
 11 12  2  0
 13 14  1  0
 13 11  1  0
 14 15  1  1
 16 15  1  0
 17 19  1  0
 17 14  1  0
 18 17  2  0
M  END
$$$$
