DGC.pdb
     RDKit          3D

 19 18  0  0  1  0  0  0  0  0999 V2000
   20.0824   -8.3871  -14.7281 N   0  0  0  0  0  0  0  0  0  0  0  0
   18.7265   -8.6971  -14.2376 C   0  0  1  0  0  0  0  0  0  0  0  0
   18.5983  -10.1912  -14.4294 C   0  0  0  0  0  0  0  0  0  0  0  0
   18.3622  -10.6187  -15.8115 C   0  0  0  0  0  0  0  0  0  0  0  0
   17.6082   -9.9682  -16.5781 O   0  0  0  0  0  0  0  0  0  0  0  0
   18.6965   -8.3020  -12.8076 C   0  0  0  0  0  0  0  0  0  0  0  0
   19.6797   -8.5342  -12.0313 O   0  0  0  0  0  0  0  0  0  0  0  0
   18.9618  -11.7578  -16.3270 O   0  0  0  0  0  0  0  0  0  0  0  0
   17.5821   -7.6399  -12.2005 N   0  0  0  0  0  0  0  0  0  0  0  0
   17.6248   -7.1874  -10.8302 C   0  0  0  0  0  0  0  0  0  0  0  0
   16.4005   -6.5968  -10.3186 C   0  0  0  0  0  0  0  0  0  0  0  0
   15.5276   -6.2380  -11.1411 O   0  0  0  0  0  0  0  0  0  0  0  0
   16.1669   -6.4141   -8.9579 N   0  0  0  0  0  0  0  0  0  0  0  0
   14.9025   -5.9332   -8.4181 C   0  0  1  0  0  0  0  0  0  0  0  0
   14.7352   -6.4033   -6.9699 C   0  0  0  0  0  0  0  0  0  0  0  0
   14.8705   -8.2234   -6.9179 S   0  0  0  0  0  0  0  0  0  0  0  0
   14.9048   -4.4570   -8.4345 C   0  0  0  0  0  0  0  0  0  0  0  0
   15.9777   -3.8088   -8.4195 O   0  0  0  0  0  0  0  0  0  0  0  0
   13.6997   -3.7766   -8.4672 O   0  0  0  0  0  0  0  0  0  0  0  0
  2  3  1  0
  2  1  1  1
  3  4  1  0
  4  8  1  0
  4  5  2  0
  6  2  1  0
  7  6  2  0
  9  6  1  0
 10 11  1  0
 10  9  1  0
 11 12  2  0
 13 14  1  0
 13 11  1  0
 14 15  1  1
 16 15  1  0
 17 19  1  0
 17 14  1  0
 18 17  2  0
M  END
$$$$
