DGC.pdb
     RDKit          3D

 19 18  0  0  1  0  0  0  0  0999 V2000
   21.4750  -21.6098  -13.3825 N   0  0  0  0  0  0  0  0  0  0  0  0
   20.0667  -21.5675  -13.8183 C   0  0  1  0  0  0  0  0  0  0  0  0
   19.9609  -22.6853  -14.8306 C   0  0  0  0  0  0  0  0  0  0  0  0
   20.6960  -22.4602  -16.0787 C   0  0  0  0  0  0  0  0  0  0  0  0
   20.5183  -21.4225  -16.7650 O   0  0  0  0  0  0  0  0  0  0  0  0
   19.2447  -21.8157  -12.6080 C   0  0  0  0  0  0  0  0  0  0  0  0
   17.9811  -21.9626  -12.6793 O   0  0  0  0  0  0  0  0  0  0  0  0
   21.6163  -23.3838  -16.5508 O   0  0  0  0  0  0  0  0  0  0  0  0
   19.7971  -21.9095  -11.2909 N   0  0  0  0  0  0  0  0  0  0  0  0
   18.9780  -22.2351  -10.1476 C   0  0  0  0  0  0  0  0  0  0  0  0
   18.8570  -23.6484   -9.8355 C   0  0  0  0  0  0  0  0  0  0  0  0
   19.2928  -24.4775  -10.6662 O   0  0  0  0  0  0  0  0  0  0  0  0
   18.2756  -24.1097   -8.6571 N   0  0  0  0  0  0  0  0  0  0  0  0
   18.2419  -25.5149   -8.2753 C   0  0  1  0  0  0  0  0  0  0  0  0
   17.9809  -25.6460   -6.7717 C   0  0  0  0  0  0  0  0  0  0  0  0
   18.9277  -24.3569   -5.8908 S   0  0  0  0  0  0  0  0  0  0  0  0
   17.1438  -26.1827   -9.0018 C   0  0  0  0  0  0  0  0  0  0  0  0
   16.1186  -25.5522   -9.3520 O   0  0  0  0  0  0  0  0  0  0  0  0
   17.2489  -27.5302   -9.3014 O   0  0  0  0  0  0  0  0  0  0  0  0
  2  3  1  0
  2  1  1  1
  3  4  1  0
  4  8  1  0
  4  5  2  0
  6  2  1  0
  7  6  2  0
  9  6  1  0
 10 11  1  0
 10  9  1  0
 11 12  2  0
 13 14  1  0
 13 11  1  0
 14 15  1  1
 16 15  1  0
 17 19  1  0
 17 14  1  0
 18 17  2  0
M  END
$$$$
