PSF.pdb
     RDKit          3D

 25 26  0  0  1  0  0  0  0  0999 V2000
   27.1550  -21.6921  -15.6768 N   0  0  0  0  0  0  0  0  0  0  0  0
   27.1671  -20.6326  -16.6399 C   0  0  0  0  0  0  0  0  0  0  0  0
   28.6782  -20.4062  -16.7986 C   0  0  0  0  0  0  0  0  0  0  0  0
   29.0725  -20.3950  -15.3149 C   0  0  0  0  0  0  0  0  0  0  0  0
   28.0060  -21.2247  -14.6323 C   0  0  1  0  0  0  0  0  0  0  0  0
   27.3085  -20.4006  -13.6258 C   0  0  0  0  0  0  0  0  0  0  0  0
   27.3407  -19.1436  -13.7475 O   0  0  0  0  0  0  0  0  0  0  0  0
   23.8454  -21.0901  -12.2060 O   0  0  0  0  0  0  0  0  0  0  0  0
   24.4485  -19.8574  -11.9931 C   0  0  0  0  0  0  0  0  0  0  0  0
   25.8973  -20.0382  -11.5819 C   0  0  2  0  0  0  0  0  0  0  0  0
   26.5916  -20.9115  -12.5123 N   0  0  0  0  0  0  0  0  0  0  0  0
   25.9647  -20.6733  -10.2387 C   0  0  0  0  0  0  0  0  0  0  0  0
   26.1680  -21.9300  -10.1604 O   0  0  0  0  0  0  0  0  0  0  0  0
   25.8161  -19.9594   -9.0367 N   0  0  0  0  0  0  0  0  0  0  0  0
   25.6943  -20.6764   -7.7779 C   0  0  1  0  0  0  0  0  0  0  0  0
   25.9484  -19.7224   -6.6396 C   0  0  0  0  0  0  0  0  0  0  0  0
   27.3624  -19.8046   -6.2171 C   0  0  0  0  0  0  0  0  0  0  0  0
   28.1789  -18.7050   -6.3783 C   0  0  0  0  0  0  0  0  0  0  0  0
   29.4983  -18.7729   -5.9724 C   0  0  0  0  0  0  0  0  0  0  0  0
   30.0274  -19.9097   -5.4088 C   0  0  0  0  0  0  0  0  0  0  0  0
   29.2130  -21.0045   -5.2487 C   0  0  0  0  0  0  0  0  0  0  0  0
   27.8854  -20.9364   -5.6568 C   0  0  0  0  0  0  0  0  0  0  0  0
   24.3811  -21.3571   -7.7108 C   0  0  0  0  0  0  0  0  0  0  0  0
   23.3709  -21.0614   -8.6515 O   0  0  0  0  0  0  0  0  0  0  0  0
   24.0657  -22.2167   -6.8515 O   0  0  0  0  0  0  0  0  0  0  0  0
  1  2  1  0
  3  2  1  0
  4  3  1  0
  5  4  1  0
  5  6  1  1
  5  1  1  0
  6  7  2  0
  9  8  1  0
 10  9  1  6
 10 12  1  0
 11 10  1  0
 11  6  1  0
 12 14  1  0
 13 12  2  0
 14 15  1  0
 15 16  1  1
 16 17  1  0
 17 22  1  0
 17 18  2  0
 18 19  1  0
 19 20  2  0
 21 20  1  0
 22 21  2  0
 23 24  1  0
 23 15  1  0
 25 23  2  0
M  END
$$$$
