PSF.pdb
     RDKit          3D

 25 26  0  0  1  0  0  0  0  0999 V2000
   26.4633  -22.5926  -15.2716 N   0  0  0  0  0  0  0  0  0  0  0  0
   25.3762  -22.1874  -16.1108 C   0  0  0  0  0  0  0  0  0  0  0  0
   26.1309  -21.4247  -17.2101 C   0  0  0  0  0  0  0  0  0  0  0  0
   27.0571  -20.5833  -16.3207 C   0  0  0  0  0  0  0  0  0  0  0  0
   27.1991  -21.3915  -15.0486 C   0  0  1  0  0  0  0  0  0  0  0  0
   26.7065  -20.6007  -13.9037 C   0  0  0  0  0  0  0  0  0  0  0  0
   27.0041  -19.3744  -13.8446 O   0  0  0  0  0  0  0  0  0  0  0  0
   23.5668  -21.7798  -11.4890 O   0  0  0  0  0  0  0  0  0  0  0  0
   23.8754  -20.4384  -11.6732 C   0  0  0  0  0  0  0  0  0  0  0  0
   25.3749  -20.2510  -11.8050 C   0  0  2  0  0  0  0  0  0  0  0  0
   25.9121  -21.1120  -12.8443 N   0  0  0  0  0  0  0  0  0  0  0  0
   26.0433  -20.6210  -10.5290 C   0  0  0  0  0  0  0  0  0  0  0  0
   26.5543  -21.7841  -10.4154 O   0  0  0  0  0  0  0  0  0  0  0  0
   26.1459  -19.7521   -9.4286 N   0  0  0  0  0  0  0  0  0  0  0  0
   26.8024  -20.1987   -8.2108 C   0  0  1  0  0  0  0  0  0  0  0  0
   27.5627  -19.0458   -7.6082 C   0  0  0  0  0  0  0  0  0  0  0  0
   28.2292  -19.4763   -6.3612 C   0  0  0  0  0  0  0  0  0  0  0  0
   27.7482  -19.0255   -5.1499 C   0  0  0  0  0  0  0  0  0  0  0  0
   28.3600  -19.4360   -3.9805 C   0  0  0  0  0  0  0  0  0  0  0  0
   29.4409  -20.2855   -3.9855 C   0  0  0  0  0  0  0  0  0  0  0  0
   29.9191  -20.7339   -5.1929 C   0  0  0  0  0  0  0  0  0  0  0  0
   29.3037  -20.3212   -6.3696 C   0  0  0  0  0  0  0  0  0  0  0  0
   25.8089  -20.8074   -7.2971 C   0  0  0  0  0  0  0  0  0  0  0  0
   26.1777  -21.8654   -6.4383 O   0  0  0  0  0  0  0  0  0  0  0  0
   24.6075  -20.4526   -7.2103 O   0  0  0  0  0  0  0  0  0  0  0  0
  1  2  1  0
  3  2  1  0
  4  3  1  0
  5  4  1  0
  5  6  1  1
  5  1  1  0
  6  7  2  0
  9  8  1  0
 10  9  1  1
 10 12  1  0
 11 10  1  0
 11  6  1  0
 12 14  1  0
 13 12  2  0
 14 15  1  0
 15 16  1  1
 16 17  1  0
 17 22  1  0
 17 18  2  0
 18 19  1  0
 19 20  2  0
 21 20  1  0
 22 21  2  0
 23 24  1  0
 23 15  1  0
 25 23  2  0
M  END
$$$$
