PSF.pdb
     RDKit          3D

 25 26  0  0  1  0  0  0  0  0999 V2000
   18.4618  -13.7643  -16.7701 N   0  0  0  0  0  0  0  0  0  0  0  0
   18.4709  -12.9750  -17.9648 C   0  0  0  0  0  0  0  0  0  0  0  0
   19.9605  -12.6113  -18.0573 C   0  0  0  0  0  0  0  0  0  0  0  0
   20.1931  -12.1946  -16.5982 C   0  0  0  0  0  0  0  0  0  0  0  0
   19.1477  -12.9586  -15.8139 C   0  0  1  0  0  0  0  0  0  0  0  0
   18.2699  -12.0073  -15.1044 C   0  0  0  0  0  0  0  0  0  0  0  0
   18.7969  -11.1716  -14.3172 O   0  0  0  0  0  0  0  0  0  0  0  0
   14.8315  -10.6462  -16.4953 O   0  0  0  0  0  0  0  0  0  0  0  0
   15.3895  -10.0046  -15.3974 C   0  0  0  0  0  0  0  0  0  0  0  0
   16.0543  -11.0093  -14.4756 C   0  0  2  0  0  0  0  0  0  0  0  0
   16.8576  -11.9519  -15.2349 N   0  0  0  0  0  0  0  0  0  0  0  0
   15.0176  -11.7900  -13.7492 C   0  0  0  0  0  0  0  0  0  0  0  0
   14.5936  -12.8783  -14.2617 O   0  0  0  0  0  0  0  0  0  0  0  0
   14.4725  -11.3929  -12.5157 N   0  0  0  0  0  0  0  0  0  0  0  0
   13.3783  -12.1495  -11.9293 C   0  0  1  0  0  0  0  0  0  0  0  0
   13.3366  -11.8884  -10.4459 C   0  0  0  0  0  0  0  0  0  0  0  0
   12.1847  -12.5898   -9.8412 C   0  0  0  0  0  0  0  0  0  0  0  0
   11.0339  -11.8817   -9.5651 C   0  0  0  0  0  0  0  0  0  0  0  0
    9.9496  -12.5362   -9.0119 C   0  0  0  0  0  0  0  0  0  0  0  0
    9.9809  -13.8805   -8.7257 C   0  0  0  0  0  0  0  0  0  0  0  0
   11.1279  -14.5848   -9.0013 C   0  0  0  0  0  0  0  0  0  0  0  0
   12.2190  -13.9266   -9.5580 C   0  0  0  0  0  0  0  0  0  0  0  0
   12.1139  -11.8332  -12.6317 C   0  0  0  0  0  0  0  0  0  0  0  0
   11.1911  -12.8552  -12.9430 O   0  0  0  0  0  0  0  0  0  0  0  0
   11.7677  -10.6821  -12.9950 O   0  0  0  0  0  0  0  0  0  0  0  0
  1  2  1  0
  3  2  1  0
  4  3  1  0
  5  4  1  0
  5  6  1  6
  5  1  1  0
  6  7  2  0
  9  8  1  0
 10  9  1  6
 10 12  1  0
 11 10  1  0
 11  6  1  0
 12 14  1  0
 13 12  2  0
 14 15  1  0
 15 16  1  1
 16 17  1  0
 17 22  1  0
 17 18  2  0
 18 19  1  0
 19 20  2  0
 21 20  1  0
 22 21  2  0
 23 24  1  0
 23 15  1  0
 25 23  2  0
M  END
$$$$
