PSF.pdb
     RDKit          3D

 25 26  0  0  1  0  0  0  0  0999 V2000
   26.9330  -18.3767  -15.5239 N   0  0  0  0  0  0  0  0  0  0  0  0
   26.1480  -19.0389  -16.5217 C   0  0  0  0  0  0  0  0  0  0  0  0
   25.2770  -17.8760  -17.0202 C   0  0  0  0  0  0  0  0  0  0  0  0
   24.8593  -17.2945  -15.6621 C   0  0  0  0  0  0  0  0  0  0  0  0
   25.9726  -17.6965  -14.7184 C   0  0  1  0  0  0  0  0  0  0  0  0
   25.4211  -18.5259  -13.6292 C   0  0  0  0  0  0  0  0  0  0  0  0
   24.3228  -18.1840  -13.1070 O   0  0  0  0  0  0  0  0  0  0  0  0
   26.5415  -22.3480  -12.9338 O   0  0  0  0  0  0  0  0  0  0  0  0
   25.3692  -21.9155  -12.3280 C   0  0  0  0  0  0  0  0  0  0  0  0
   25.4535  -20.4366  -12.0016 C   0  0  2  0  0  0  0  0  0  0  0  0
   26.0326  -19.6968  -13.1097 N   0  0  0  0  0  0  0  0  0  0  0  0
   26.3322  -20.2304  -10.8196 C   0  0  0  0  0  0  0  0  0  0  0  0
   27.5767  -20.0217  -11.0055 O   0  0  0  0  0  0  0  0  0  0  0  0
   25.8643  -20.2522   -9.4941 N   0  0  0  0  0  0  0  0  0  0  0  0
   26.8091  -20.1961   -8.3906 C   0  0  1  0  0  0  0  0  0  0  0  0
   26.2889  -19.2463   -7.3429 C   0  0  0  0  0  0  0  0  0  0  0  0
   27.2374  -19.1725   -6.2117 C   0  0  0  0  0  0  0  0  0  0  0  0
   27.1834  -20.1326   -5.2233 C   0  0  0  0  0  0  0  0  0  0  0  0
   28.0771  -20.0751   -4.1705 C   0  0  0  0  0  0  0  0  0  0  0  0
   29.0253  -19.0843   -4.0758 C   0  0  0  0  0  0  0  0  0  0  0  0
   29.0781  -18.1284   -5.0612 C   0  0  0  0  0  0  0  0  0  0  0  0
   28.1793  -18.1860   -6.1205 C   0  0  0  0  0  0  0  0  0  0  0  0
   27.0753  -21.5621   -7.8854 C   0  0  0  0  0  0  0  0  0  0  0  0
   28.3870  -21.9587   -7.5462 O   0  0  0  0  0  0  0  0  0  0  0  0
   26.1987  -22.4463   -7.7220 O   0  0  0  0  0  0  0  0  0  0  0  0
  1  2  1  0
  3  2  1  0
  4  3  1  0
  5  4  1  0
  5  6  1  1
  5  1  1  0
  6  7  2  0
  9  8  1  0
 10  9  1  6
 10 12  1  0
 11 10  1  0
 11  6  1  0
 12 14  1  0
 13 12  2  0
 14 15  1  0
 15 16  1  1
 16 17  1  0
 17 22  1  0
 17 18  2  0
 18 19  1  0
 19 20  2  0
 21 20  1  0
 22 21  2  0
 23 24  1  0
 23 15  1  0
 25 23  2  0
M  END
$$$$
