PSF.pdb
     RDKit          3D

 25 26  0  0  1  0  0  0  0  0999 V2000
   32.5107  -22.5656  -12.4753 N   0  0  0  0  0  0  0  0  0  0  0  0
   33.4409  -21.7595  -11.7437 C   0  0  0  0  0  0  0  0  0  0  0  0
   33.6045  -22.5974  -10.4666 C   0  0  0  0  0  0  0  0  0  0  0  0
   32.1244  -22.8946  -10.1877 C   0  0  0  0  0  0  0  0  0  0  0  0
   31.4591  -22.8169  -11.5453 C   0  0  1  0  0  0  0  0  0  0  0  0
   30.4223  -21.7665  -11.5275 C   0  0  0  0  0  0  0  0  0  0  0  0
   30.7881  -20.5575  -11.5102 O   0  0  0  0  0  0  0  0  0  0  0  0
   26.2134  -19.9709  -12.6918 O   0  0  0  0  0  0  0  0  0  0  0  0
   27.2321  -20.9106  -12.7799 C   0  0  0  0  0  0  0  0  0  0  0  0
   28.0601  -20.9179  -11.5090 C   0  0  2  0  0  0  0  0  0  0  0  0
   29.0231  -22.0054  -11.5280 N   0  0  0  0  0  0  0  0  0  0  0  0
   27.1751  -21.1260  -10.3319 C   0  0  0  0  0  0  0  0  0  0  0  0
   26.7805  -22.3077  -10.0585 O   0  0  0  0  0  0  0  0  0  0  0  0
   26.7443  -20.0830   -9.4935 N   0  0  0  0  0  0  0  0  0  0  0  0
   25.8902  -20.3746   -8.3538 C   0  0  1  0  0  0  0  0  0  0  0  0
   26.0471  -19.2832   -7.3270 C   0  0  0  0  0  0  0  0  0  0  0  0
   27.1901  -19.5843   -6.4394 C   0  0  0  0  0  0  0  0  0  0  0  0
   28.0915  -18.5849   -6.1389 C   0  0  0  0  0  0  0  0  0  0  0  0
   29.1544  -18.8585   -5.2989 C   0  0  0  0  0  0  0  0  0  0  0  0
   29.3437  -20.1040   -4.7488 C   0  0  0  0  0  0  0  0  0  0  0  0
   28.4449  -21.0989   -5.0488 C   0  0  0  0  0  0  0  0  0  0  0  0
   27.3754  -20.8239   -5.8939 C   0  0  0  0  0  0  0  0  0  0  0  0
   24.4957  -20.5774   -8.8081 C   0  0  0  0  0  0  0  0  0  0  0  0
   23.5594  -21.2330   -7.9797 O   0  0  0  0  0  0  0  0  0  0  0  0
   24.0448  -20.2016   -9.9182 O   0  0  0  0  0  0  0  0  0  0  0  0
  1  2  1  0
  3  2  1  0
  4  3  1  0
  5  4  1  0
  5  6  1  1
  5  1  1  0
  6  7  2  0
  9  8  1  0
 10  9  1  6
 10 12  1  0
 11 10  1  0
 11  6  1  0
 12 14  1  0
 13 12  2  0
 14 15  1  0
 15 16  1  1
 16 17  1  0
 17 22  1  0
 17 18  2  0
 18 19  1  0
 19 20  2  0
 21 20  1  0
 22 21  2  0
 23 24  1  0
 23 15  1  0
 25 23  2  0
M  END
$$$$
