PSF.pdb
     RDKit          3D

 25 26  0  0  1  0  0  0  0  0999 V2000
   27.9013  -19.5743  -16.9467 N   0  0  0  0  0  0  0  0  0  0  0  0
   27.8508  -18.3308  -17.6549 C   0  0  0  0  0  0  0  0  0  0  0  0
   29.3224  -17.8972  -17.5790 C   0  0  0  0  0  0  0  0  0  0  0  0
   29.5741  -18.1748  -16.0902 C   0  0  0  0  0  0  0  0  0  0  0  0
   28.5784  -19.2574  -15.7323 C   0  0  1  0  0  0  0  0  0  0  0  0
   27.6819  -18.7705  -14.6655 C   0  0  0  0  0  0  0  0  0  0  0  0
   27.7423  -17.5526  -14.3355 O   0  0  0  0  0  0  0  0  0  0  0  0
   23.9735  -19.7410  -14.2593 O   0  0  0  0  0  0  0  0  0  0  0  0
   24.5088  -18.6483  -13.5900 C   0  0  0  0  0  0  0  0  0  0  0  0
   25.8460  -19.0072  -12.9703 C   0  0  2  0  0  0  0  0  0  0  0  0
   26.7406  -19.5706  -13.9666 N   0  0  0  0  0  0  0  0  0  0  0  0
   25.6520  -20.0346  -11.9126 C   0  0  0  0  0  0  0  0  0  0  0  0
   25.8163  -21.2640  -12.2098 O   0  0  0  0  0  0  0  0  0  0  0  0
   25.2944  -19.7247  -10.5888 N   0  0  0  0  0  0  0  0  0  0  0  0
   25.0355  -20.7939   -9.6384 C   0  0  1  0  0  0  0  0  0  0  0  0
   25.1895  -20.2583   -8.2385 C   0  0  0  0  0  0  0  0  0  0  0  0
   26.6215  -20.1851   -7.8798 C   0  0  0  0  0  0  0  0  0  0  0  0
   27.0565  -19.1769   -7.0453 C   0  0  0  0  0  0  0  0  0  0  0  0
   28.3923  -19.1124   -6.6966 C   0  0  0  0  0  0  0  0  0  0  0  0
   29.3087  -20.0274   -7.1580 C   0  0  0  0  0  0  0  0  0  0  0  0
   28.8741  -21.0313   -7.9892 C   0  0  0  0  0  0  0  0  0  0  0  0
   27.5302  -21.0966   -8.3401 C   0  0  0  0  0  0  0  0  0  0  0  0
   23.7115  -21.3987   -9.9090 C   0  0  0  0  0  0  0  0  0  0  0  0
   22.7173  -20.6706  -10.5977 O   0  0  0  0  0  0  0  0  0  0  0  0
   23.3727  -22.5582   -9.5656 O   0  0  0  0  0  0  0  0  0  0  0  0
  1  2  1  0
  3  2  1  0
  4  3  1  0
  5  4  1  0
  5  6  1  1
  5  1  1  0
  6  7  2  0
  9  8  1  0
 10  9  1  6
 10 12  1  0
 11 10  1  0
 11  6  1  0
 12 14  1  0
 13 12  2  0
 14 15  1  0
 15 16  1  1
 16 17  1  0
 17 22  1  0
 17 18  2  0
 18 19  1  0
 19 20  2  0
 21 20  1  0
 22 21  2  0
 23 24  1  0
 23 15  1  0
 25 23  2  0
M  END
$$$$
