PSF.pdb
     RDKit          3D

 25 26  0  0  1  0  0  0  0  0999 V2000
   24.3313  -34.4859   -9.8829 N   0  0  0  0  0  0  0  0  0  0  0  0
   23.9150  -33.2240  -10.4165 C   0  0  0  0  0  0  0  0  0  0  0  0
   24.6248  -33.2401  -11.7787 C   0  0  0  0  0  0  0  0  0  0  0  0
   26.0127  -33.7060  -11.3165 C   0  0  0  0  0  0  0  0  0  0  0  0
   25.7482  -34.4833  -10.0447 C   0  0  1  0  0  0  0  0  0  0  0  0
   26.4701  -33.8534   -8.9219 C   0  0  0  0  0  0  0  0  0  0  0  0
   27.7332  -33.8762   -8.9277 O   0  0  0  0  0  0  0  0  0  0  0  0
   24.5707  -32.6353   -5.4975 O   0  0  0  0  0  0  0  0  0  0  0  0
   25.7354  -31.9206   -5.7446 C   0  0  0  0  0  0  0  0  0  0  0  0
   26.6280  -32.6760   -6.7107 C   0  0  2  0  0  0  0  0  0  0  0  0
   25.8528  -33.2125   -7.8160 N   0  0  0  0  0  0  0  0  0  0  0  0
   27.2665  -33.8246   -6.0143 C   0  0  0  0  0  0  0  0  0  0  0  0
   26.6701  -34.9520   -6.0103 O   0  0  0  0  0  0  0  0  0  0  0  0
   28.5042  -33.7379   -5.3532 N   0  0  0  0  0  0  0  0  0  0  0  0
   29.0239  -34.8891   -4.6334 C   0  0  1  0  0  0  0  0  0  0  0  0
   30.1662  -35.4854   -5.4143 C   0  0  0  0  0  0  0  0  0  0  0  0
   31.2475  -34.4895   -5.5686 C   0  0  0  0  0  0  0  0  0  0  0  0
   32.2414  -34.4209   -4.6151 C   0  0  0  0  0  0  0  0  0  0  0  0
   33.2617  -33.5002   -4.7621 C   0  0  0  0  0  0  0  0  0  0  0  0
   33.3185  -32.6440   -5.8361 C   0  0  0  0  0  0  0  0  0  0  0  0
   32.3278  -32.7134   -6.7854 C   0  0  0  0  0  0  0  0  0  0  0  0
   31.3012  -33.6397   -6.6379 C   0  0  0  0  0  0  0  0  0  0  0  0
   29.3793  -34.4998   -3.2498 C   0  0  0  0  0  0  0  0  0  0  0  0
   29.2753  -33.1548   -2.8338 O   0  0  0  0  0  0  0  0  0  0  0  0
   29.7854  -35.2946   -2.3665 O   0  0  0  0  0  0  0  0  0  0  0  0
  1  2  1  0
  3  2  1  0
  4  3  1  0
  5  4  1  0
  5  6  1  1
  5  1  1  0
  6  7  2  0
  9  8  1  0
 10  9  1  1
 10 12  1  0
 11 10  1  0
 11  6  1  0
 12 14  1  0
 13 12  2  0
 14 15  1  0
 15 16  1  6
 16 17  1  0
 17 22  1  0
 17 18  2  0
 18 19  1  0
 19 20  2  0
 21 20  1  0
 22 21  2  0
 23 24  1  0
 23 15  1  0
 25 23  2  0
M  END
$$$$
