PSF.pdb
     RDKit          3D

 25 26  0  0  1  0  0  0  0  0999 V2000
   28.0222  -18.1106  -15.0424 N   0  0  0  0  0  0  0  0  0  0  0  0
   27.0769  -18.0214  -16.1142 C   0  0  0  0  0  0  0  0  0  0  0  0
   26.6654  -16.5449  -16.0120 C   0  0  0  0  0  0  0  0  0  0  0  0
   26.4465  -16.4651  -14.4946 C   0  0  0  0  0  0  0  0  0  0  0  0
   27.3375  -17.5483  -13.9249 C   0  0  1  0  0  0  0  0  0  0  0  0
   26.5154  -18.5245  -13.1834 C   0  0  0  0  0  0  0  0  0  0  0  0
   25.4084  -18.1440  -12.7085 O   0  0  0  0  0  0  0  0  0  0  0  0
   26.6750  -22.2000  -13.9571 O   0  0  0  0  0  0  0  0  0  0  0  0
   26.0869  -22.1803  -12.6992 C   0  0  0  0  0  0  0  0  0  0  0  0
   26.0420  -20.7649  -12.1554 C   0  0  2  0  0  0  0  0  0  0  0  0
   26.8710  -19.8795  -12.9549 N   0  0  0  0  0  0  0  0  0  0  0  0
   26.5738  -20.7413  -10.7667 C   0  0  0  0  0  0  0  0  0  0  0  0
   27.8327  -20.6372  -10.5903 O   0  0  0  0  0  0  0  0  0  0  0  0
   25.7590  -20.8276   -9.6243 N   0  0  0  0  0  0  0  0  0  0  0  0
   26.3645  -20.8683   -8.3032 C   0  0  1  0  0  0  0  0  0  0  0  0
   27.2670  -19.6732   -8.1365 C   0  0  0  0  0  0  0  0  0  0  0  0
   27.7922  -19.6249   -6.7558 C   0  0  0  0  0  0  0  0  0  0  0  0
   27.1137  -18.8960   -5.8018 C   0  0  0  0  0  0  0  0  0  0  0  0
   27.5939  -18.8588   -4.5063 C   0  0  0  0  0  0  0  0  0  0  0  0
   28.7348  -19.5299   -4.1349 C   0  0  0  0  0  0  0  0  0  0  0  0
   29.4098  -20.2558   -5.0862 C   0  0  0  0  0  0  0  0  0  0  0  0
   28.9269  -20.2935   -6.3896 C   0  0  0  0  0  0  0  0  0  0  0  0
   25.3104  -20.9752   -7.2690 C   0  0  0  0  0  0  0  0  0  0  0  0
   25.5360  -21.7157   -6.0885 O   0  0  0  0  0  0  0  0  0  0  0  0
   24.1764  -20.4414   -7.3476 O   0  0  0  0  0  0  0  0  0  0  0  0
  1  2  1  0
  3  2  1  0
  4  3  1  0
  5  4  1  0
  5  6  1  6
  5  1  1  0
  6  7  2  0
  9  8  1  0
 10  9  1  6
 10 12  1  0
 11 10  1  0
 11  6  1  0
 12 14  1  0
 13 12  2  0
 14 15  1  0
 15 16  1  1
 16 17  1  0
 17 22  1  0
 17 18  2  0
 18 19  1  0
 19 20  2  0
 21 20  1  0
 22 21  2  0
 23 24  1  0
 23 15  1  0
 25 23  2  0
M  END
$$$$
