FVA.pdb
     RDKit          3D

 24 24  0  0  1  0  0  0  0  0999 V2000
   27.1701  -21.4297   -8.3959 N   0  0  0  0  0  0  0  0  0  0  0  0
   26.4412  -20.1781   -8.4218 C   0  0  1  0  0  0  0  0  0  0  0  0
   27.3840  -19.1091   -7.9093 C   0  0  0  0  0  0  0  0  0  0  0  0
   27.7372  -19.3818   -6.5029 C   0  0  0  0  0  0  0  0  0  0  0  0
   26.7814  -19.8268   -5.6227 C   0  0  0  0  0  0  0  0  0  0  0  0
   27.0886  -20.0923   -4.2870 C   0  0  0  0  0  0  0  0  0  0  0  0
   28.3751  -19.9121   -3.8123 C   0  0  0  0  0  0  0  0  0  0  0  0
   29.3306  -19.4667   -4.6942 C   0  0  0  0  0  0  0  0  0  0  0  0
   29.0109  -19.2091   -6.0105 C   0  0  0  0  0  0  0  0  0  0  0  0
   26.0162  -19.9179   -9.8161 C   0  0  0  0  0  0  0  0  0  0  0  0
   26.2652  -18.8087  -10.3490 O   0  0  0  0  0  0  0  0  0  0  0  0
   25.1915  -21.7396  -14.2379 C   0  0  0  0  0  0  0  0  0  0  0  0
   25.4312  -21.8763  -12.7571 C   0  0  2  0  0  0  0  0  0  0  0  0
   24.7456  -23.0900  -12.2045 C   0  0  0  0  0  0  0  0  0  0  0  0
   24.9477  -20.6556  -11.9926 C   0  0  2  0  0  0  0  0  0  0  0  0
   25.3270  -20.8648  -10.6131 N   0  0  0  0  0  0  0  0  0  0  0  0
   23.4808  -20.5254  -12.1524 C   0  0  0  0  0  0  0  0  0  0  0  0
   22.7198  -21.4133  -11.6927 O   0  0  0  0  0  0  0  0  0  0  0  0
   21.6920  -19.2981  -14.9274 C   0  0  0  0  0  0  0  0  0  0  0  0
   21.5460  -19.4974  -13.4128 C   0  0  2  0  0  0  0  0  0  0  0  0
   22.8628  -19.4279  -12.8118 N   0  0  0  0  0  0  0  0  0  0  0  0
   20.8649  -20.7668  -13.1598 C   0  0  0  0  0  0  0  0  0  0  0  0
   21.2891  -21.8123  -13.7058 O   0  0  0  0  0  0  0  0  0  0  0  0
   19.7596  -20.8885  -12.3391 O   0  0  0  0  0  0  0  0  0  0  0  0
  2  1  1  6
  3  2  1  0
  4  5  2  0
  4  3  1  0
  6  5  1  0
  7  6  2  0
  8  7  1  0
  8  9  2  0
  9  4  1  0
 10  2  1  0
 10 11  2  0
 13 12  1  6
 13 14  1  0
 15 16  1  1
 15 13  1  0
 16 10  1  0
 17 15  1  0
 18 17  2  0
 20 19  1  6
 20 21  1  0
 21 17  1  0
 22 20  1  0
 22 24  1  0
 23 22  2  0
M  END
$$$$
