FVA.pdb
     RDKit          3D

 24 24  0  0  1  0  0  0  0  0999 V2000
   29.4329  -10.0937  -17.5552 N   0  0  0  0  0  0  0  0  0  0  0  0
   27.9996   -9.9361  -17.6945 C   0  0  1  0  0  0  0  0  0  0  0  0
   27.3612  -10.6752  -16.5366 C   0  0  0  0  0  0  0  0  0  0  0  0
   27.5242  -12.1304  -16.7173 C   0  0  0  0  0  0  0  0  0  0  0  0
   28.0393  -12.9006  -15.7033 C   0  0  0  0  0  0  0  0  0  0  0  0
   28.2041  -14.2794  -15.8478 C   0  0  0  0  0  0  0  0  0  0  0  0
   27.8495  -14.9100  -17.0266 C   0  0  0  0  0  0  0  0  0  0  0  0
   27.3342  -14.1381  -18.0405 C   0  0  0  0  0  0  0  0  0  0  0  0
   27.1778  -12.7774  -17.8817 C   0  0  0  0  0  0  0  0  0  0  0  0
   27.6874   -8.4890  -17.6658 C   0  0  0  0  0  0  0  0  0  0  0  0
   28.3186   -7.7284  -16.8917 O   0  0  0  0  0  0  0  0  0  0  0  0
   25.8787   -4.6046  -20.0357 C   0  0  0  0  0  0  0  0  0  0  0  0
   26.4563   -5.9870  -19.8787 C   0  0  2  0  0  0  0  0  0  0  0  0
   25.7687   -6.9695  -20.7788 C   0  0  0  0  0  0  0  0  0  0  0  0
   26.3493   -6.4833  -18.4467 C   0  0  2  0  0  0  0  0  0  0  0  0
   26.6946   -7.8871  -18.4775 N   0  0  0  0  0  0  0  0  0  0  0  0
   24.9711   -6.2605  -17.9515 C   0  0  0  0  0  0  0  0  0  0  0  0
   24.0075   -6.8603  -18.4905 O   0  0  0  0  0  0  0  0  0  0  0  0
   23.3832   -4.3677  -15.0874 C   0  0  0  0  0  0  0  0  0  0  0  0
   23.3105   -5.1300  -16.4174 C   0  0  2  0  0  0  0  0  0  0  0  0
   24.6618   -5.3858  -16.8742 N   0  0  0  0  0  0  0  0  0  0  0  0
   22.5183   -4.3545  -17.3716 C   0  0  0  0  0  0  0  0  0  0  0  0
   23.0551   -3.4049  -17.9887 O   0  0  0  0  0  0  0  0  0  0  0  0
   21.1868   -4.6087  -17.6411 O   0  0  0  0  0  0  0  0  0  0  0  0
  2  1  1  1
  3  2  1  0
  4  5  2  0
  4  3  1  0
  6  5  1  0
  7  6  2  0
  8  7  1  0
  8  9  2  0
  9  4  1  0
 10  2  1  0
 10 11  2  0
 13 12  1  1
 13 14  1  0
 15 16  1  6
 15 13  1  0
 16 10  1  0
 17 15  1  0
 18 17  2  0
 20 19  1  1
 20 21  1  0
 21 17  1  0
 22 20  1  0
 22 24  1  0
 23 22  2  0
M  END
$$$$
