FVA.pdb
     RDKit          3D

 24 24  0  0  1  0  0  0  0  0999 V2000
   23.5948  -18.0567  -19.1607 N   0  0  0  0  0  0  0  0  0  0  0  0
   23.4336  -17.8872  -17.7311 C   0  0  1  0  0  0  0  0  0  0  0  0
   21.9599  -18.0669  -17.4302 C   0  0  0  0  0  0  0  0  0  0  0  0
   21.2052  -16.8842  -17.8869 C   0  0  0  0  0  0  0  0  0  0  0  0
   21.5601  -15.6285  -17.4583 C   0  0  0  0  0  0  0  0  0  0  0  0
   20.8630  -14.4928  -17.8748 C   0  0  0  0  0  0  0  0  0  0  0  0
   19.7877  -14.6050  -18.7373 C   0  0  0  0  0  0  0  0  0  0  0  0
   19.4336  -15.8622  -19.1654 C   0  0  0  0  0  0  0  0  0  0  0  0
   20.1325  -16.9738  -18.7446 C   0  0  0  0  0  0  0  0  0  0  0  0
   24.2652  -18.9035  -17.0471 C   0  0  0  0  0  0  0  0  0  0  0  0
   24.1881  -20.1087  -17.3905 O   0  0  0  0  0  0  0  0  0  0  0  0
   28.0502  -19.8196  -13.9649 C   0  0  0  0  0  0  0  0  0  0  0  0
   27.1727  -18.8909  -14.7628 C   0  0  2  0  0  0  0  0  0  0  0  0
   26.7869  -17.6840  -13.9610 C   0  0  0  0  0  0  0  0  0  0  0  0
   25.9064  -19.5822  -15.2390 C   0  0  2  0  0  0  0  0  0  0  0  0
   25.1691  -18.5982  -15.9999 N   0  0  0  0  0  0  0  0  0  0  0  0
   25.1408  -20.0667  -14.0670 C   0  0  0  0  0  0  0  0  0  0  0  0
   24.4196  -19.2690  -13.4172 O   0  0  0  0  0  0  0  0  0  0  0  0
   24.5062  -23.4274  -12.4472 C   0  0  0  0  0  0  0  0  0  0  0  0
   24.4124  -21.8960  -12.4822 C   0  0  2  0  0  0  0  0  0  0  0  0
   25.1720  -21.4155  -13.6190 N   0  0  0  0  0  0  0  0  0  0  0  0
   24.8840  -21.3576  -11.2067 C   0  0  0  0  0  0  0  0  0  0  0  0
   26.0913  -21.0460  -11.0790 O   0  0  0  0  0  0  0  0  0  0  0  0
   24.0646  -21.1669  -10.1102 O   0  0  0  0  0  0  0  0  0  0  0  0
  2  1  1  6
  3  2  1  0
  4  5  2  0
  4  3  1  0
  6  5  1  0
  7  6  2  0
  8  7  1  0
  8  9  2  0
  9  4  1  0
 10  2  1  0
 10 11  2  0
 13 12  1  1
 13 14  1  0
 15 16  1  1
 15 13  1  0
 16 10  1  0
 17 15  1  0
 18 17  2  0
 20 19  1  1
 20 21  1  0
 21 17  1  0
 22 20  1  0
 22 24  1  0
 23 22  2  0
M  END
$$$$
