FVA.pdb
     RDKit          3D

 24 24  0  0  1  0  0  0  0  0999 V2000
   28.1288  -20.6266   -9.0786 N   0  0  0  0  0  0  0  0  0  0  0  0
   26.6919  -20.6238   -8.8949 C   0  0  1  0  0  0  0  0  0  0  0  0
   26.3915  -19.6317   -7.7904 C   0  0  0  0  0  0  0  0  0  0  0  0
   27.2929  -19.8645   -6.6459 C   0  0  0  0  0  0  0  0  0  0  0  0
   28.4321  -19.1115   -6.4974 C   0  0  0  0  0  0  0  0  0  0  0  0
   29.3022  -19.3111   -5.4240 C   0  0  0  0  0  0  0  0  0  0  0  0
   29.0363  -20.2811   -4.4745 C   0  0  0  0  0  0  0  0  0  0  0  0
   27.8961  -21.0338   -4.6243 C   0  0  0  0  0  0  0  0  0  0  0  0
   27.0470  -20.8241   -5.6903 C   0  0  0  0  0  0  0  0  0  0  0  0
   26.0615  -20.2320  -10.1761 C   0  0  0  0  0  0  0  0  0  0  0  0
   26.2976  -19.1019  -10.6694 O   0  0  0  0  0  0  0  0  0  0  0  0
   24.8525  -23.0837  -12.9450 C   0  0  0  0  0  0  0  0  0  0  0  0
   25.1816  -21.6376  -13.2091 C   0  0  2  0  0  0  0  0  0  0  0  0
   26.6638  -21.4125  -13.2331 C   0  0  0  0  0  0  0  0  0  0  0  0
   24.5682  -20.7201  -12.1649 C   0  0  2  0  0  0  0  0  0  0  0  0
   25.1836  -21.0719  -10.9046 N   0  0  0  0  0  0  0  0  0  0  0  0
   23.1001  -20.9159  -12.1407 C   0  0  0  0  0  0  0  0  0  0  0  0
   22.6137  -21.9377  -11.5946 O   0  0  0  0  0  0  0  0  0  0  0  0
   20.0745  -18.9402  -13.2736 C   0  0  0  0  0  0  0  0  0  0  0  0
   20.7498  -20.2164  -12.7536 C   0  0  2  0  0  0  0  0  0  0  0  0
   22.1813  -19.9942  -12.7128 N   0  0  0  0  0  0  0  0  0  0  0  0
   20.3669  -21.3423  -13.6050 C   0  0  0  0  0  0  0  0  0  0  0  0
   21.1390  -21.7120  -14.5205 O   0  0  0  0  0  0  0  0  0  0  0  0
   19.1821  -22.0390  -13.4603 O   0  0  0  0  0  0  0  0  0  0  0  0
  2  1  1  6
  3  2  1  0
  4  5  2  0
  4  3  1  0
  6  5  1  0
  7  6  2  0
  8  7  1  0
  8  9  2  0
  9  4  1  0
 10  2  1  0
 10 11  2  0
 13 12  1  1
 13 14  1  0
 15 16  1  1
 15 13  1  0
 16 10  1  0
 17 15  1  0
 18 17  2  0
 20 19  1  6
 20 21  1  0
 21 17  1  0
 22 20  1  0
 22 24  1  0
 23 22  2  0
M  END
$$$$
