FVA.pdb
     RDKit          3D

 24 24  0  0  1  0  0  0  0  0999 V2000
   28.2095  -21.0789   -9.1491 N   0  0  0  0  0  0  0  0  0  0  0  0
   26.8259  -20.6556   -9.0792 C   0  0  1  0  0  0  0  0  0  0  0  0
   26.7966  -19.3811   -8.2611 C   0  0  0  0  0  0  0  0  0  0  0  0
   27.3932  -19.6215   -6.9333 C   0  0  0  0  0  0  0  0  0  0  0  0
   28.5880  -19.0347   -6.5946 C   0  0  0  0  0  0  0  0  0  0  0  0
   29.1745  -19.2453   -5.3453 C   0  0  0  0  0  0  0  0  0  0  0  0
   28.5613  -20.0577   -4.4089 C   0  0  0  0  0  0  0  0  0  0  0  0
   27.3657  -20.6443   -4.7491 C   0  0  0  0  0  0  0  0  0  0  0  0
   26.7997  -20.4260   -5.9873 C   0  0  0  0  0  0  0  0  0  0  0  0
   26.3376  -20.4374  -10.4599 C   0  0  0  0  0  0  0  0  0  0  0  0
   26.5958  -19.3606  -11.0516 O   0  0  0  0  0  0  0  0  0  0  0  0
   25.3274  -22.4759  -14.7357 C   0  0  0  0  0  0  0  0  0  0  0  0
   25.4960  -22.5626  -13.2413 C   0  0  2  0  0  0  0  0  0  0  0  0
   24.6232  -23.6324  -12.6564 C   0  0  0  0  0  0  0  0  0  0  0  0
   25.1704  -21.2443  -12.5598 C   0  0  2  0  0  0  0  0  0  0  0  0
   25.5758  -21.3905  -11.1796 N   0  0  0  0  0  0  0  0  0  0  0  0
   23.7202  -20.9706  -12.6874 C   0  0  0  0  0  0  0  0  0  0  0  0
   23.1891  -20.9267  -13.8253 O   0  0  0  0  0  0  0  0  0  0  0  0
   20.8737  -20.2546  -10.2895 C   0  0  0  0  0  0  0  0  0  0  0  0
   21.4419  -20.5183  -11.6905 C   0  0  2  0  0  0  0  0  0  0  0  0
   22.8678  -20.7481  -11.5715 N   0  0  0  0  0  0  0  0  0  0  0  0
   21.1122  -19.3907  -12.5616 C   0  0  0  0  0  0  0  0  0  0  0  0
   21.9211  -18.4395  -12.6698 O   0  0  0  0  0  0  0  0  0  0  0  0
   19.9396  -19.3063  -13.2884 O   0  0  0  0  0  0  0  0  0  0  0  0
  2  1  1  6
  3  2  1  0
  4  5  2  0
  4  3  1  0
  6  5  1  0
  7  6  2  0
  8  7  1  0
  8  9  2  0
  9  4  1  0
 10  2  1  0
 10 11  2  0
 13 12  1  6
 13 14  1  0
 15 16  1  1
 15 13  1  0
 16 10  1  0
 17 15  1  0
 18 17  2  0
 20 19  1  1
 20 21  1  0
 21 17  1  0
 22 20  1  0
 22 24  1  0
 23 22  2  0
M  END
$$$$
