FVA.pdb
     RDKit          3D

 24 24  0  0  1  0  0  0  0  0999 V2000
   28.3788  -20.6535   -9.2705 N   0  0  0  0  0  0  0  0  0  0  0  0
   26.9402  -20.6406   -9.1017 C   0  0  1  0  0  0  0  0  0  0  0  0
   26.6284  -19.5822   -8.0639 C   0  0  0  0  0  0  0  0  0  0  0  0
   27.4387  -19.8112   -6.8524 C   0  0  0  0  0  0  0  0  0  0  0  0
   28.7331  -19.3562   -6.7889 C   0  0  0  0  0  0  0  0  0  0  0  0
   29.5217  -19.5594   -5.6549 C   0  0  0  0  0  0  0  0  0  0  0  0
   29.0144  -20.2302   -4.5569 C   0  0  0  0  0  0  0  0  0  0  0  0
   27.7190  -20.6850   -4.6218 C   0  0  0  0  0  0  0  0  0  0  0  0
   26.9533  -20.4761   -5.7493 C   0  0  0  0  0  0  0  0  0  0  0  0
   26.3226  -20.3296  -10.4110 C   0  0  0  0  0  0  0  0  0  0  0  0
   26.5695  -19.2352  -10.9746 O   0  0  0  0  0  0  0  0  0  0  0  0
   24.9596  -21.8801  -14.7276 C   0  0  0  0  0  0  0  0  0  0  0  0
   25.3532  -22.0969  -13.2899 C   0  0  2  0  0  0  0  0  0  0  0  0
   24.7938  -23.3835  -12.7607 C   0  0  0  0  0  0  0  0  0  0  0  0
   24.8823  -20.9600  -12.3988 C   0  0  2  0  0  0  0  0  0  0  0  0
   25.4457  -21.2103  -11.0908 N   0  0  0  0  0  0  0  0  0  0  0  0
   23.4014  -20.9385  -12.3716 C   0  0  0  0  0  0  0  0  0  0  0  0
   22.7760  -21.7734  -11.6711 O   0  0  0  0  0  0  0  0  0  0  0  0
   20.6851  -18.8174  -13.9459 C   0  0  0  0  0  0  0  0  0  0  0  0
   21.1740  -20.0432  -13.1626 C   0  0  2  0  0  0  0  0  0  0  0  0
   22.6217  -20.0062  -13.1092 N   0  0  0  0  0  0  0  0  0  0  0  0
   20.6528  -21.2549  -13.7945 C   0  0  0  0  0  0  0  0  0  0  0  0
   21.3197  -21.8141  -14.6965 O   0  0  0  0  0  0  0  0  0  0  0  0
   19.4457  -21.8343  -13.4523 O   0  0  0  0  0  0  0  0  0  0  0  0
  2  1  1  6
  3  2  1  0
  4  5  2  0
  4  3  1  0
  6  5  1  0
  7  6  2  0
  8  7  1  0
  8  9  2  0
  9  4  1  0
 10  2  1  0
 10 11  2  0
 13 12  1  6
 13 14  1  0
 15 16  1  1
 15 13  1  0
 16 10  1  0
 17 15  1  0
 18 17  2  0
 20 19  1  6
 20 21  1  0
 21 17  1  0
 22 20  1  0
 22 24  1  0
 23 22  2  0
M  END
$$$$
