FVA.pdb
     RDKit          3D

 24 24  0  0  1  0  0  0  0  0999 V2000
   28.1476  -20.7923   -9.0917 N   0  0  0  0  0  0  0  0  0  0  0  0
   26.7142  -20.6303   -8.9587 C   0  0  1  0  0  0  0  0  0  0  0  0
   26.4886  -19.4879   -7.9899 C   0  0  0  0  0  0  0  0  0  0  0  0
   27.2452  -19.7262   -6.7459 C   0  0  0  0  0  0  0  0  0  0  0  0
   28.4389  -19.0829   -6.5275 C   0  0  0  0  0  0  0  0  0  0  0  0
   29.1749  -19.2902   -5.3594 C   0  0  0  0  0  0  0  0  0  0  0  0
   28.7160  -20.1566   -4.3839 C   0  0  0  0  0  0  0  0  0  0  0  0
   27.5212  -20.7997   -4.6037 C   0  0  0  0  0  0  0  0  0  0  0  0
   26.8064  -20.5839   -5.7629 C   0  0  0  0  0  0  0  0  0  0  0  0
   26.1546  -20.3378  -10.2980 C   0  0  0  0  0  0  0  0  0  0  0  0
   26.6100  -19.3803  -10.9705 O   0  0  0  0  0  0  0  0  0  0  0  0
   24.4000  -23.2723  -12.5356 C   0  0  0  0  0  0  0  0  0  0  0  0
   24.8795  -21.9548  -13.0863 C   0  0  2  0  0  0  0  0  0  0  0  0
   26.3657  -21.9568  -13.2857 C   0  0  0  0  0  0  0  0  0  0  0  0
   24.5137  -20.7960  -12.1744 C   0  0  2  0  0  0  0  0  0  0  0  0
   25.1086  -21.0881  -10.8892 N   0  0  0  0  0  0  0  0  0  0  0  0
   23.0391  -20.6827  -12.0917 C   0  0  0  0  0  0  0  0  0  0  0  0
   22.3936  -21.4513  -11.3358 O   0  0  0  0  0  0  0  0  0  0  0  0
   20.3910  -18.5916  -13.8182 C   0  0  0  0  0  0  0  0  0  0  0  0
   20.8388  -19.7150  -12.8735 C   0  0  2  0  0  0  0  0  0  0  0  0
   22.2874  -19.7321  -12.8349 N   0  0  0  0  0  0  0  0  0  0  0  0
   20.2609  -20.9803  -13.3257 C   0  0  0  0  0  0  0  0  0  0  0  0
   19.1551  -21.3507  -12.8664 O   0  0  0  0  0  0  0  0  0  0  0  0
   20.8706  -21.8107  -14.2471 O   0  0  0  0  0  0  0  0  0  0  0  0
  2  1  1  6
  3  2  1  0
  4  5  2  0
  4  3  1  0
  6  5  1  0
  7  6  2  0
  8  7  1  0
  8  9  2  0
  9  4  1  0
 10  2  1  0
 10 11  2  0
 13 12  1  1
 13 14  1  0
 15 16  1  1
 15 13  1  0
 16 10  1  0
 17 15  1  0
 18 17  2  0
 20 19  1  6
 20 21  1  0
 21 17  1  0
 22 20  1  0
 22 24  1  0
 23 22  2  0
M  END
$$$$
