FVA.pdb
     RDKit          3D

 24 24  0  0  1  0  0  0  0  0999 V2000
   25.8641  -18.7407   -7.7833 N   0  0  0  0  0  0  0  0  0  0  0  0
   26.6798  -19.7792   -8.3788 C   0  0  1  0  0  0  0  0  0  0  0  0
   26.7956  -20.8892   -7.3547 C   0  0  0  0  0  0  0  0  0  0  0  0
   27.6035  -20.4333   -6.2074 C   0  0  0  0  0  0  0  0  0  0  0  0
   27.0290  -20.2945   -4.9676 C   0  0  0  0  0  0  0  0  0  0  0  0
   27.7704  -19.8649   -3.8653 C   0  0  0  0  0  0  0  0  0  0  0  0
   29.1143  -19.5655   -3.9956 C   0  0  0  0  0  0  0  0  0  0  0  0
   29.6880  -19.7048   -5.2369 C   0  0  0  0  0  0  0  0  0  0  0  0
   28.9418  -20.1303   -6.3155 C   0  0  0  0  0  0  0  0  0  0  0  0
   26.0132  -20.2385   -9.6186 C   0  0  0  0  0  0  0  0  0  0  0  0
   24.7706  -20.4177   -9.6309 O   0  0  0  0  0  0  0  0  0  0  0  0
   27.1558  -19.4310  -14.3767 C   0  0  0  0  0  0  0  0  0  0  0  0
   27.4926  -19.8932  -12.9831 C   0  0  2  0  0  0  0  0  0  0  0  0
   28.2636  -21.1790  -13.0077 C   0  0  0  0  0  0  0  0  0  0  0  0
   26.2456  -20.0912  -12.1380 C   0  0  2  0  0  0  0  0  0  0  0  0
   26.7040  -20.4970  -10.8280 N   0  0  0  0  0  0  0  0  0  0  0  0
   25.3833  -21.1178  -12.7681 C   0  0  0  0  0  0  0  0  0  0  0  0
   25.7686  -22.3126  -12.8203 O   0  0  0  0  0  0  0  0  0  0  0  0
   21.8865  -21.2223  -14.2035 C   0  0  0  0  0  0  0  0  0  0  0  0
   23.2818  -21.8222  -13.9830 C   0  0  2  0  0  0  0  0  0  0  0  0
   24.1115  -20.8275  -13.3331 N   0  0  0  0  0  0  0  0  0  0  0  0
   23.8198  -22.2691  -15.2676 C   0  0  0  0  0  0  0  0  0  0  0  0
   24.5209  -21.4839  -15.9478 O   0  0  0  0  0  0  0  0  0  0  0  0
   23.5989  -23.5297  -15.7895 O   0  0  0  0  0  0  0  0  0  0  0  0
  2  1  1  1
  3  2  1  0
  4  5  2  0
  4  3  1  0
  6  5  1  0
  7  6  2  0
  8  7  1  0
  8  9  2  0
  9  4  1  0
 10  2  1  0
 10 11  2  0
 13 12  1  6
 13 14  1  0
 15 16  1  1
 15 13  1  0
 16 10  1  0
 17 15  1  0
 18 17  2  0
 20 19  1  6
 20 21  1  0
 21 17  1  0
 22 20  1  0
 22 24  1  0
 23 22  2  0
M  END
$$$$
