KSR.pdb
     RDKit          3D

 27 26  0  0  1  0  0  0  0  0999 V2000
   12.4062  -25.5338    0.2499 N   0  0  0  0  0  0  0  0  0  0  0  0
   13.7715  -25.6380   -0.2079 C   0  0  1  0  0  0  0  0  0  0  0  0
   14.4502  -26.8541    0.3002 C   0  0  0  0  0  0  0  0  0  0  0  0
   14.7764  -26.7535    1.7479 C   0  0  0  0  0  0  0  0  0  0  0  0
   16.2104  -26.6540    2.1226 C   0  0  0  0  0  0  0  0  0  0  0  0
   16.3149  -26.6310    3.6682 C   0  0  0  0  0  0  0  0  0  0  0  0
   17.6654  -26.4412    4.0863 N   0  0  0  0  0  0  0  0  0  0  0  0
   13.7312  -25.6028   -1.7119 C   0  0  0  0  0  0  0  0  0  0  0  0
   13.4755  -26.6334   -2.3720 O   0  0  0  0  0  0  0  0  0  0  0  0
   14.8398  -22.0548   -3.3358 O   0  0  0  0  0  0  0  0  0  0  0  0
   14.1026  -22.8133   -4.2521 C   0  0  0  0  0  0  0  0  0  0  0  0
   14.0764  -24.2885   -3.8351 C   0  0  2  0  0  0  0  0  0  0  0  0
   13.9853  -24.3872   -2.4037 N   0  0  0  0  0  0  0  0  0  0  0  0
   15.3624  -24.8774   -4.2728 C   0  0  0  0  0  0  0  0  0  0  0  0
   16.3031  -24.9356   -3.4329 O   0  0  0  0  0  0  0  0  0  0  0  0
   20.7188  -28.1225   -9.7858 N   0  0  0  0  0  0  0  0  0  0  0  0
   20.0548  -29.1998   -9.1721 C   0  0  0  0  0  0  0  0  0  0  0  0
   20.7043  -30.2573   -8.8752 N   0  0  0  0  0  0  0  0  0  0  0  0
   18.6634  -29.1019   -8.8868 N   0  0  0  0  0  0  0  0  0  0  0  0
   17.9277  -27.8774   -9.0353 C   0  0  0  0  0  0  0  0  0  0  0  0
   18.1462  -27.0721   -7.7608 C   0  0  0  0  0  0  0  0  0  0  0  0
   16.8347  -26.6386   -7.2022 C   0  0  0  0  0  0  0  0  0  0  0  0
   16.9191  -25.8579   -5.9234 C   0  0  2  0  0  0  0  0  0  0  0  0
   15.5979  -25.3782   -5.5757 N   0  0  0  0  0  0  0  0  0  0  0  0
   17.9084  -24.7613   -5.9604 C   0  0  0  0  0  0  0  0  0  0  0  0
   17.6760  -23.6140   -6.4091 O   0  0  0  0  0  0  0  0  0  0  0  0
   19.2142  -24.9613   -5.4726 O   0  0  0  0  0  0  0  0  0  0  0  0
  2  1  1  1
  2  3  1  0
  3  4  1  0
  4  5  1  0
  5  6  1  0
  6  7  1  0
  8  2  1  0
  8  9  2  0
 11 10  1  0
 12 11  1  1
 12 13  1  0
 13  8  1  0
 14 12  1  0
 15 14  2  0
 17 16  1  0
 18 17  2  0
 19 17  1  0
 20 19  1  0
 21 22  1  0
 21 20  1  0
 23 24  1  0
 23 22  1  6
 24 14  1  0
 25 23  1  0
 26 25  2  0
 27 25  1  0
M  END
$$$$
