KSR.pdb
     RDKit          3D

 27 26  0  0  1  0  0  0  0  0999 V2000
   23.8778  -20.1517  -16.3758 N   0  0  0  0  0  0  0  0  0  0  0  0
   23.5685  -19.6758  -17.7034 C   0  0  1  0  0  0  0  0  0  0  0  0
   22.7400  -20.6350  -18.4723 C   0  0  0  0  0  0  0  0  0  0  0  0
   21.7558  -21.3447  -17.6120 C   0  0  0  0  0  0  0  0  0  0  0  0
   20.7939  -22.2583  -18.2803 C   0  0  0  0  0  0  0  0  0  0  0  0
   19.8052  -22.7963  -17.2157 C   0  0  0  0  0  0  0  0  0  0  0  0
   18.8422  -23.6672  -17.8064 N   0  0  0  0  0  0  0  0  0  0  0  0
   22.8846  -18.3450  -17.5414 C   0  0  0  0  0  0  0  0  0  0  0  0
   22.3897  -18.0064  -16.4443 O   0  0  0  0  0  0  0  0  0  0  0  0
   22.5653  -16.0124  -20.9482 O   0  0  0  0  0  0  0  0  0  0  0  0
   22.6225  -15.2937  -19.7488 C   0  0  0  0  0  0  0  0  0  0  0  0
   22.1580  -16.1636  -18.5748 C   0  0  2  0  0  0  0  0  0  0  0  0
   22.7935  -17.4514  -18.6432 N   0  0  0  0  0  0  0  0  0  0  0  0
   20.6968  -16.3440  -18.7310 C   0  0  0  0  0  0  0  0  0  0  0  0
   20.2854  -17.4169  -19.2537 O   0  0  0  0  0  0  0  0  0  0  0  0
   13.3595  -12.4003  -15.3835 N   0  0  0  0  0  0  0  0  0  0  0  0
   12.9824  -13.5894  -16.0329 C   0  0  0  0  0  0  0  0  0  0  0  0
   11.7714  -13.9872  -15.9720 N   0  0  0  0  0  0  0  0  0  0  0  0
   13.9545  -14.3398  -16.7531 N   0  0  0  0  0  0  0  0  0  0  0  0
   15.3512  -14.0055  -16.7451 C   0  0  0  0  0  0  0  0  0  0  0  0
   16.0568  -15.0293  -17.6253 C   0  0  0  0  0  0  0  0  0  0  0  0
   17.5309  -14.8217  -17.5650 C   0  0  0  0  0  0  0  0  0  0  0  0
   18.3285  -15.6724  -18.5096 C   0  0  2  0  0  0  0  0  0  0  0  0
   19.7361  -15.3853  -18.3287 N   0  0  0  0  0  0  0  0  0  0  0  0
   17.9184  -15.5370  -19.9224 C   0  0  0  0  0  0  0  0  0  0  0  0
   18.4906  -14.7972  -20.7571 O   0  0  0  0  0  0  0  0  0  0  0  0
   16.8190  -16.2634  -20.4192 O   0  0  0  0  0  0  0  0  0  0  0  0
  2  1  1  1
  2  3  1  0
  3  4  1  0
  4  5  1  0
  5  6  1  0
  6  7  1  0
  8  2  1  0
  8  9  2  0
 11 10  1  0
 12 11  1  6
 12 13  1  0
 13  8  1  0
 14 12  1  0
 15 14  2  0
 17 16  1  0
 18 17  2  0
 19 17  1  0
 20 19  1  0
 21 22  1  0
 21 20  1  0
 23 24  1  0
 23 22  1  1
 24 14  1  0
 25 23  1  0
 26 25  2  0
 27 25  1  0
M  END
$$$$
