KSR.pdb
     RDKit          3D

 27 26  0  0  1  0  0  0  0  0999 V2000
   18.3812  -13.8189  -17.5426 N   0  0  0  0  0  0  0  0  0  0  0  0
   16.9794  -13.4741  -17.5703 C   0  0  1  0  0  0  0  0  0  0  0  0
   16.1109  -14.5888  -17.1223 C   0  0  0  0  0  0  0  0  0  0  0  0
   16.3330  -15.8286  -17.9136 C   0  0  0  0  0  0  0  0  0  0  0  0
   15.4713  -16.9998  -17.6097 C   0  0  0  0  0  0  0  0  0  0  0  0
   15.8126  -18.1342  -18.6083 C   0  0  0  0  0  0  0  0  0  0  0  0
   14.9879  -19.2765  -18.3852 N   0  0  0  0  0  0  0  0  0  0  0  0
   16.8141  -12.2508  -16.7094 C   0  0  0  0  0  0  0  0  0  0  0  0
   15.6780  -11.8455  -16.3805 O   0  0  0  0  0  0  0  0  0  0  0  0
   20.2899  -10.2751  -15.6338 O   0  0  0  0  0  0  0  0  0  0  0  0
   19.2422  -10.1701  -14.7119 C   0  0  0  0  0  0  0  0  0  0  0  0
   17.8904  -10.3823  -15.4036 C   0  0  2  0  0  0  0  0  0  0  0  0
   17.9575  -11.5374  -16.2571 N   0  0  0  0  0  0  0  0  0  0  0  0
   17.6477   -9.1849  -16.2399 C   0  0  0  0  0  0  0  0  0  0  0  0
   18.1121   -9.1787  -17.4138 O   0  0  0  0  0  0  0  0  0  0  0  0
   14.3670   -4.0086  -13.7264 N   0  0  0  0  0  0  0  0  0  0  0  0
   14.4938   -2.8882  -14.5669 C   0  0  0  0  0  0  0  0  0  0  0  0
   14.6598   -1.7302  -14.0571 N   0  0  0  0  0  0  0  0  0  0  0  0
   14.4360   -3.0547  -15.9796 N   0  0  0  0  0  0  0  0  0  0  0  0
   13.9753   -4.2667  -16.5973 C   0  0  0  0  0  0  0  0  0  0  0  0
   15.2056   -4.9827  -17.1398 C   0  0  0  0  0  0  0  0  0  0  0  0
   15.5508   -6.1362  -16.2621 C   0  0  0  0  0  0  0  0  0  0  0  0
   16.7447   -6.9312  -16.7030 C   0  0  2  0  0  0  0  0  0  0  0  0
   16.9264   -8.0489  -15.8006 N   0  0  0  0  0  0  0  0  0  0  0  0
   17.9776   -6.1281  -16.8362 C   0  0  0  0  0  0  0  0  0  0  0  0
   18.8747   -6.0595  -15.9632 O   0  0  0  0  0  0  0  0  0  0  0  0
   18.2133   -5.3700  -17.9993 O   0  0  0  0  0  0  0  0  0  0  0  0
  2  1  1  1
  2  3  1  0
  3  4  1  0
  4  5  1  0
  5  6  1  0
  6  7  1  0
  8  2  1  0
  8  9  2  0
 11 10  1  0
 12 11  1  6
 12 13  1  0
 13  8  1  0
 14 12  1  0
 15 14  2  0
 17 16  1  0
 18 17  2  0
 19 17  1  0
 20 19  1  0
 21 22  1  0
 21 20  1  0
 23 24  1  0
 23 22  1  1
 24 14  1  0
 25 23  1  0
 26 25  2  0
 27 25  1  0
M  END
$$$$
