KSR.pdb
     RDKit          3D

 27 26  0  0  1  0  0  0  0  0999 V2000
   24.8723  -20.4085   -8.3108 N   0  0  0  0  0  0  0  0  0  0  0  0
   24.2401  -21.0407   -9.4445 C   0  0  1  0  0  0  0  0  0  0  0  0
   22.7608  -21.0307   -9.3490 C   0  0  0  0  0  0  0  0  0  0  0  0
   22.2602  -21.9230   -8.2693 C   0  0  0  0  0  0  0  0  0  0  0  0
   20.7892  -22.0204   -8.0868 C   0  0  0  0  0  0  0  0  0  0  0  0
   20.4983  -23.0708   -6.9857 C   0  0  0  0  0  0  0  0  0  0  0  0
   19.0975  -23.1769   -6.7381 N   0  0  0  0  0  0  0  0  0  0  0  0
   24.7296  -20.3229  -10.6733 C   0  0  0  0  0  0  0  0  0  0  0  0
   24.8089  -19.0754  -10.6997 O   0  0  0  0  0  0  0  0  0  0  0  0
   25.8335  -22.6508  -14.0116 O   0  0  0  0  0  0  0  0  0  0  0  0
   26.4783  -21.4265  -13.8022 C   0  0  0  0  0  0  0  0  0  0  0  0
   25.5620  -20.4549  -13.0491 C   0  0  2  0  0  0  0  0  0  0  0  0
   25.1105  -21.0619  -11.8265 N   0  0  0  0  0  0  0  0  0  0  0  0
   24.3908  -20.2117  -13.9216 C   0  0  0  0  0  0  0  0  0  0  0  0
   23.3043  -20.7829  -13.6268 O   0  0  0  0  0  0  0  0  0  0  0  0
   21.7258  -17.2436  -20.9665 N   0  0  0  0  0  0  0  0  0  0  0  0
   20.8714  -16.3886  -20.2476 C   0  0  0  0  0  0  0  0  0  0  0  0
   19.7631  -16.0219  -20.7629 N   0  0  0  0  0  0  0  0  0  0  0  0
   21.2495  -15.9392  -18.9508 N   0  0  0  0  0  0  0  0  0  0  0  0
   22.4806  -16.3325  -18.3243 C   0  0  0  0  0  0  0  0  0  0  0  0
   22.1737  -17.5605  -17.4767 C   0  0  0  0  0  0  0  0  0  0  0  0
   23.3776  -17.9486  -16.6893 C   0  0  0  0  0  0  0  0  0  0  0  0
   23.1955  -19.1472  -15.8050 C   0  0  2  0  0  0  0  0  0  0  0  0
   24.4185  -19.3773  -15.0648 N   0  0  0  0  0  0  0  0  0  0  0  0
   22.7561  -20.3583  -16.5280 C   0  0  0  0  0  0  0  0  0  0  0  0
   23.5328  -21.2284  -16.9877 O   0  0  0  0  0  0  0  0  0  0  0  0
   21.3862  -20.6030  -16.7439 O   0  0  0  0  0  0  0  0  0  0  0  0
  2  1  1  1
  2  3  1  0
  3  4  1  0
  4  5  1  0
  5  6  1  0
  6  7  1  0
  8  2  1  0
  8  9  2  0
 11 10  1  0
 12 11  1  6
 12 13  1  0
 13  8  1  0
 14 12  1  0
 15 14  2  0
 17 16  1  0
 18 17  2  0
 19 17  1  0
 20 19  1  0
 21 22  1  0
 21 20  1  0
 23 24  1  0
 23 22  1  6
 24 14  1  0
 25 23  1  0
 26 25  2  0
 27 25  1  0
M  END
$$$$
