KSR.pdb
     RDKit          3D

 27 26  0  0  1  0  0  0  0  0999 V2000
   14.5441  -20.0521    6.2330 N   0  0  0  0  0  0  0  0  0  0  0  0
   15.9792  -20.0228    6.0773 C   0  0  1  0  0  0  0  0  0  0  0  0
   16.4090  -19.1977    4.9232 C   0  0  0  0  0  0  0  0  0  0  0  0
   16.6303  -20.0133    3.6992 C   0  0  0  0  0  0  0  0  0  0  0  0
   15.6050  -19.9337    2.6273 C   0  0  0  0  0  0  0  0  0  0  0  0
   16.0391  -20.8572    1.4614 C   0  0  0  0  0  0  0  0  0  0  0  0
   15.1135  -20.7826    0.3786 N   0  0  0  0  0  0  0  0  0  0  0  0
   16.5485  -19.5156    7.3749 C   0  0  0  0  0  0  0  0  0  0  0  0
   15.8201  -18.9478    8.2175 O   0  0  0  0  0  0  0  0  0  0  0  0
   20.1390  -21.0986    8.6705 O   0  0  0  0  0  0  0  0  0  0  0  0
   19.2026  -20.5355    9.5449 C   0  0  0  0  0  0  0  0  0  0  0  0
   18.5383  -19.3089    8.9086 C   0  0  2  0  0  0  0  0  0  0  0  0
   17.9319  -19.6785    7.6585 N   0  0  0  0  0  0  0  0  0  0  0  0
   19.6171  -18.3299    8.6442 C   0  0  0  0  0  0  0  0  0  0  0  0
   20.2233  -18.4012    7.5391 O   0  0  0  0  0  0  0  0  0  0  0  0
   20.2955   -9.9608    7.5703 N   0  0  0  0  0  0  0  0  0  0  0  0
   21.6159  -10.4410    7.5064 C   0  0  0  0  0  0  0  0  0  0  0  0
   22.5548   -9.6627    7.1309 N   0  0  0  0  0  0  0  0  0  0  0  0
   21.8945  -11.7913    7.8612 N   0  0  0  0  0  0  0  0  0  0  0  0
   20.8597  -12.7436    8.1528 C   0  0  0  0  0  0  0  0  0  0  0  0
   21.5504  -14.0585    8.4913 C   0  0  0  0  0  0  0  0  0  0  0  0
   20.5338  -15.0971    8.8197 C   0  0  0  0  0  0  0  0  0  0  0  0
   21.0969  -16.4324    9.2089 C   0  0  2  0  0  0  0  0  0  0  0  0
   20.0074  -17.3204    9.5566 N   0  0  0  0  0  0  0  0  0  0  0  0
   22.1096  -16.3607   10.2822 C   0  0  0  0  0  0  0  0  0  0  0  0
   21.8931  -16.6603   11.4800 O   0  0  0  0  0  0  0  0  0  0  0  0
   23.4215  -15.9347    9.9982 O   0  0  0  0  0  0  0  0  0  0  0  0
  2  1  1  1
  2  3  1  0
  3  4  1  0
  4  5  1  0
  5  6  1  0
  6  7  1  0
  8  2  1  0
  8  9  2  0
 11 10  1  0
 12 11  1  6
 12 13  1  0
 13  8  1  0
 14 12  1  0
 15 14  2  0
 17 16  1  0
 18 17  2  0
 19 17  1  0
 20 19  1  0
 21 22  1  0
 21 20  1  0
 23 24  1  0
 23 22  1  1
 24 14  1  0
 25 23  1  0
 26 25  2  0
 27 25  1  0
M  END
$$$$
