KSR.pdb
     RDKit          3D

 27 26  0  0  1  0  0  0  0  0999 V2000
   29.6652  -22.5342  -16.8595 N   0  0  0  0  0  0  0  0  0  0  0  0
   29.2240  -21.1996  -17.1892 C   0  0  1  0  0  0  0  0  0  0  0  0
   28.6941  -21.1010  -18.5702 C   0  0  0  0  0  0  0  0  0  0  0  0
   28.4586  -22.4372  -19.1796 C   0  0  0  0  0  0  0  0  0  0  0  0
   27.9266  -22.4746  -20.5660 C   0  0  0  0  0  0  0  0  0  0  0  0
   27.7157  -23.9547  -20.9725 C   0  0  0  0  0  0  0  0  0  0  0  0
   27.1922  -24.0515  -22.2959 N   0  0  0  0  0  0  0  0  0  0  0  0
   28.1935  -20.8146  -16.1621 C   0  0  0  0  0  0  0  0  0  0  0  0
   27.6620  -21.6781  -15.4306 O   0  0  0  0  0  0  0  0  0  0  0  0
   26.7640  -16.9648  -16.3072 O   0  0  0  0  0  0  0  0  0  0  0  0
   26.8638  -17.4566  -15.0008 C   0  0  0  0  0  0  0  0  0  0  0  0
   26.8989  -18.9894  -15.0016 C   0  0  2  0  0  0  0  0  0  0  0  0
   27.8107  -19.4539  -16.0114 N   0  0  0  0  0  0  0  0  0  0  0  0
   25.5332  -19.4461  -15.3459 C   0  0  0  0  0  0  0  0  0  0  0  0
   25.2971  -19.7537  -16.5472 O   0  0  0  0  0  0  0  0  0  0  0  0
   18.0628  -20.2162  -13.0856 N   0  0  0  0  0  0  0  0  0  0  0  0
   18.0206  -21.5978  -13.3450 C   0  0  0  0  0  0  0  0  0  0  0  0
   16.9138  -22.1492  -13.6600 N   0  0  0  0  0  0  0  0  0  0  0  0
   19.2131  -22.3703  -13.2544 N   0  0  0  0  0  0  0  0  0  0  0  0
   20.4676  -21.8101  -12.8358 C   0  0  0  0  0  0  0  0  0  0  0  0
   21.0843  -21.1422  -14.0581 C   0  0  0  0  0  0  0  0  0  0  0  0
   22.4772  -20.7101  -13.7529 C   0  0  0  0  0  0  0  0  0  0  0  0
   23.1668  -19.9697  -14.8610 C   0  0  2  0  0  0  0  0  0  0  0  0
   24.4788  -19.5578  -14.4079 N   0  0  0  0  0  0  0  0  0  0  0  0
   22.3875  -18.8318  -15.3908 C   0  0  0  0  0  0  0  0  0  0  0  0
   22.5183  -17.6455  -15.0072 O   0  0  0  0  0  0  0  0  0  0  0  0
   21.4205  -19.0346  -16.3941 O   0  0  0  0  0  0  0  0  0  0  0  0
  2  1  1  1
  2  3  1  0
  3  4  1  0
  4  5  1  0
  5  6  1  0
  6  7  1  0
  8  2  1  0
  8  9  2  0
 11 10  1  0
 12 11  1  6
 12 13  1  0
 13  8  1  0
 14 12  1  0
 15 14  2  0
 17 16  1  0
 18 17  2  0
 19 17  1  0
 20 19  1  0
 21 22  1  0
 21 20  1  0
 23 24  1  0
 23 22  1  1
 24 14  1  0
 25 23  1  0
 26 25  2  0
 27 25  1  0
M  END
$$$$
