KSR.pdb
     RDKit          3D

 27 26  0  0  1  0  0  0  0  0999 V2000
   28.5979  -19.3424  -17.9337 N   0  0  0  0  0  0  0  0  0  0  0  0
   28.0026  -18.7090  -16.7809 C   0  0  1  0  0  0  0  0  0  0  0  0
   26.7804  -17.9423  -17.1214 C   0  0  0  0  0  0  0  0  0  0  0  0
   27.0937  -16.6503  -17.7884 C   0  0  0  0  0  0  0  0  0  0  0  0
   27.0950  -16.6278  -19.2737 C   0  0  0  0  0  0  0  0  0  0  0  0
   27.5312  -15.2175  -19.7442 C   0  0  0  0  0  0  0  0  0  0  0  0
   27.6766  -15.1743  -21.1625 N   0  0  0  0  0  0  0  0  0  0  0  0
   27.7234  -19.7981  -15.7804 C   0  0  0  0  0  0  0  0  0  0  0  0
   26.7794  -20.5999  -15.9504 O   0  0  0  0  0  0  0  0  0  0  0  0
   29.7722  -19.6780  -12.1271 O   0  0  0  0  0  0  0  0  0  0  0  0
   29.5218  -20.9518  -12.6499 C   0  0  0  0  0  0  0  0  0  0  0  0
   28.3210  -20.9184  -13.6027 C   0  0  2  0  0  0  0  0  0  0  0  0
   28.5371  -19.9277  -14.6220 N   0  0  0  0  0  0  0  0  0  0  0  0
   27.1465  -20.5215  -12.7934 C   0  0  0  0  0  0  0  0  0  0  0  0
   27.0049  -19.2981  -12.5159 O   0  0  0  0  0  0  0  0  0  0  0  0
   19.0705  -22.7528  -12.9072 N   0  0  0  0  0  0  0  0  0  0  0  0
   19.8997  -21.7372  -13.4160 C   0  0  0  0  0  0  0  0  0  0  0  0
   19.5998  -21.1680  -14.5180 N   0  0  0  0  0  0  0  0  0  0  0  0
   21.0669  -21.3521  -12.6975 N   0  0  0  0  0  0  0  0  0  0  0  0
   21.4198  -21.9273  -11.4297 C   0  0  0  0  0  0  0  0  0  0  0  0
   22.6749  -21.2088  -10.9513 C   0  0  0  0  0  0  0  0  0  0  0  0
   23.8501  -21.6487  -11.7547 C   0  0  0  0  0  0  0  0  0  0  0  0
   25.1398  -20.9594  -11.4183 C   0  0  2  0  0  0  0  0  0  0  0  0
   26.1748  -21.4323  -12.3137 N   0  0  0  0  0  0  0  0  0  0  0  0
   25.5356  -21.0969  -10.0016 C   0  0  0  0  0  0  0  0  0  0  0  0
   26.3881  -21.9146   -9.5816 O   0  0  0  0  0  0  0  0  0  0  0  0
   24.9495  -20.2814   -9.0145 O   0  0  0  0  0  0  0  0  0  0  0  0
  2  1  1  6
  2  3  1  0
  3  4  1  0
  4  5  1  0
  5  6  1  0
  6  7  1  0
  8  2  1  0
  8  9  2  0
 11 10  1  0
 12 11  1  1
 12 13  1  0
 13  8  1  0
 14 12  1  0
 15 14  2  0
 17 16  1  0
 18 17  2  0
 19 17  1  0
 20 19  1  0
 21 22  1  0
 21 20  1  0
 23 24  1  0
 23 22  1  1
 24 14  1  0
 25 23  1  0
 26 25  2  0
 27 25  1  0
M  END
$$$$
