KSR.pdb
     RDKit          3D

 27 26  0  0  1  0  0  0  0  0999 V2000
   19.2103  -23.8212   -9.4823 N   0  0  0  0  0  0  0  0  0  0  0  0
   17.9083  -24.4452   -9.4814 C   0  0  1  0  0  0  0  0  0  0  0  0
   17.9871  -25.9248   -9.5281 C   0  0  0  0  0  0  0  0  0  0  0  0
   18.0682  -26.4406  -10.9209 C   0  0  0  0  0  0  0  0  0  0  0  0
   19.4197  -26.7129  -11.4739 C   0  0  0  0  0  0  0  0  0  0  0  0
   19.2637  -27.2075  -12.9338 C   0  0  0  0  0  0  0  0  0  0  0  0
   20.5230  -27.2289  -13.6034 N   0  0  0  0  0  0  0  0  0  0  0  0
   17.1921  -23.9583   -8.2506 C   0  0  0  0  0  0  0  0  0  0  0  0
   17.8114  -23.7619   -7.1824 O   0  0  0  0  0  0  0  0  0  0  0  0
   13.9226  -21.3452   -8.2355 O   0  0  0  0  0  0  0  0  0  0  0  0
   13.7166  -22.6101   -7.6733 C   0  0  0  0  0  0  0  0  0  0  0  0
   15.0404  -23.2027   -7.1763 C   0  0  2  0  0  0  0  0  0  0  0  0
   15.7921  -23.7142   -8.2900 N   0  0  0  0  0  0  0  0  0  0  0  0
   14.6927  -24.3277   -6.2788 C   0  0  0  0  0  0  0  0  0  0  0  0
   14.5011  -25.4621   -6.7984 O   0  0  0  0  0  0  0  0  0  0  0  0
   16.5019  -28.7471   -0.8162 N   0  0  0  0  0  0  0  0  0  0  0  0
   16.6187  -27.7857    0.2037 C   0  0  0  0  0  0  0  0  0  0  0  0
   16.9846  -28.1442    1.3724 N   0  0  0  0  0  0  0  0  0  0  0  0
   16.3280  -26.4204   -0.0759 N   0  0  0  0  0  0  0  0  0  0  0  0
   15.0031  -25.9589   -0.3832 C   0  0  0  0  0  0  0  0  0  0  0  0
   14.7255  -26.3418   -1.8313 C   0  0  0  0  0  0  0  0  0  0  0  0
   14.5277  -25.1145   -2.6527 C   0  0  0  0  0  0  0  0  0  0  0  0
   14.1885  -25.3654   -4.0928 C   0  0  2  0  0  0  0  0  0  0  0  0
   14.5629  -24.2054   -4.8744 N   0  0  0  0  0  0  0  0  0  0  0  0
   12.7777  -25.7436   -4.3142 C   0  0  0  0  0  0  0  0  0  0  0  0
   11.8411  -24.9241   -4.4651 O   0  0  0  0  0  0  0  0  0  0  0  0
   12.4025  -27.0998   -4.3689 O   0  0  0  0  0  0  0  0  0  0  0  0
  2  1  1  1
  2  3  1  0
  3  4  1  0
  4  5  1  0
  5  6  1  0
  6  7  1  0
  8  2  1  0
  8  9  2  0
 11 10  1  0
 12 11  1  6
 12 13  1  0
 13  8  1  0
 14 12  1  0
 15 14  2  0
 17 16  1  0
 18 17  2  0
 19 17  1  0
 20 19  1  0
 21 22  1  0
 21 20  1  0
 23 24  1  0
 23 22  1  1
 24 14  1  0
 25 23  1  0
 26 25  2  0
 27 25  1  0
M  END
$$$$
