DPM.pdb
     RDKit          3D

 24 24  0  0  1  0  0  0  0  0999 V2000
   11.9134  -17.6662   18.9432 N   0  0  0  0  0  0  0  0  0  0  0  0
   11.3492  -18.3422   20.0947 C   0  0  1  0  0  0  0  0  0  0  0  0
   12.5403  -18.7922   20.9293 C   0  0  0  0  0  0  0  0  0  0  0  0
   13.4115  -19.6285   20.0735 C   0  0  0  0  0  0  0  0  0  0  0  0
   14.4335  -19.1452   19.5443 O   0  0  0  0  0  0  0  0  0  0  0  0
   10.4831  -17.4135   20.9119 C   0  0  0  0  0  0  0  0  0  0  0  0
   11.0696  -16.3554   21.2548 O   0  0  0  0  0  0  0  0  0  0  0  0
   13.1158  -20.9630   19.8392 O   0  0  0  0  0  0  0  0  0  0  0  0
    9.1653  -17.7412   21.2305 N   0  0  0  0  0  0  0  0  0  0  0  0
    8.3109  -18.5357   20.3050 C   0  0  0  0  0  0  0  0  0  0  0  0
    7.7883  -19.5696   21.2466 C   0  0  0  0  0  0  0  0  0  0  0  0
    7.8733  -18.9649   22.6412 C   0  0  0  0  0  0  0  0  0  0  0  0
    8.2850  -17.5236   22.3152 C   0  0  1  0  0  0  0  0  0  0  0  0
    8.7254  -16.8068   23.4896 C   0  0  0  0  0  0  0  0  0  0  0  0
    9.7050  -17.1542   24.1698 O   0  0  0  0  0  0  0  0  0  0  0  0
    6.1114  -11.0864   25.5799 C   0  0  0  0  0  0  0  0  0  0  0  0
    6.7697  -11.7456   27.1369 S   0  0  0  0  0  0  0  0  0  0  0  0
    7.6698  -13.2898   26.8839 C   0  0  0  0  0  0  0  0  0  0  0  0
    7.4065  -13.8894   25.5331 C   0  0  0  0  0  0  0  0  0  0  0  0
    8.3194  -15.0188   25.2449 C   0  0  2  0  0  0  0  0  0  0  0  0
    8.0471  -15.6278   23.9523 N   0  0  0  0  0  0  0  0  0  0  0  0
    8.3421  -16.0013   26.3250 C   0  0  0  0  0  0  0  0  0  0  0  0
    9.1998  -15.7930   27.2639 O   0  0  0  0  0  0  0  0  0  0  0  0
    7.5684  -17.1169   26.4745 O   0  0  0  0  0  0  0  0  0  0  0  0
  2  1  1  6
  2  3  1  0
  3  4  1  0
  4  8  1  0
  5  4  2  0
  6  7  2  0
  6  2  1  0
  9  6  1  0
 10  9  1  0
 11 10  1  0
 12 11  1  0
 12 13  1  0
 13 14  1  1
 13  9  1  0
 14 21  1  0
 15 14  2  0
 17 16  1  0
 17 18  1  0
 19 18  1  0
 20 19  1  1
 21 20  1  0
 22 24  1  0
 22 20  1  0
 23 22  2  0
M  END
$$$$
