DPM.pdb
     RDKit          3D

 24 24  0  0  1  0  0  0  0  0999 V2000
   10.8258  -17.9222   18.4474 N   0  0  0  0  0  0  0  0  0  0  0  0
    9.6288  -17.8182   19.2585 C   0  0  1  0  0  0  0  0  0  0  0  0
    9.4792  -19.1701   19.9423 C   0  0  0  0  0  0  0  0  0  0  0  0
    9.4709  -20.2163   18.8954 C   0  0  0  0  0  0  0  0  0  0  0  0
    8.4463  -20.4231   18.2133 O   0  0  0  0  0  0  0  0  0  0  0  0
    9.7612  -16.7363   20.3037 C   0  0  0  0  0  0  0  0  0  0  0  0
   10.7955  -16.8476   21.0102 O   0  0  0  0  0  0  0  0  0  0  0  0
   10.5954  -20.9891   18.6473 O   0  0  0  0  0  0  0  0  0  0  0  0
    8.8027  -15.7314   20.4349 N   0  0  0  0  0  0  0  0  0  0  0  0
    8.2104  -15.0554   19.2476 C   0  0  0  0  0  0  0  0  0  0  0  0
    6.7583  -15.1623   19.5773 C   0  0  0  0  0  0  0  0  0  0  0  0
    6.6695  -15.3108   21.0899 C   0  0  0  0  0  0  0  0  0  0  0  0
    8.1309  -15.0834   21.4968 C   0  0  1  0  0  0  0  0  0  0  0  0
    8.3778  -15.4659   22.8678 C   0  0  0  0  0  0  0  0  0  0  0  0
    8.0737  -16.5790   23.3277 O   0  0  0  0  0  0  0  0  0  0  0  0
    5.9611  -11.1431   28.2487 C   0  0  0  0  0  0  0  0  0  0  0  0
    7.0171  -11.7363   26.8977 S   0  0  0  0  0  0  0  0  0  0  0  0
    6.3732  -13.2527   26.1597 C   0  0  0  0  0  0  0  0  0  0  0  0
    7.0401  -13.5808   24.8554 C   0  0  0  0  0  0  0  0  0  0  0  0
    8.3780  -14.1818   25.0573 C   0  0  2  0  0  0  0  0  0  0  0  0
    9.0007  -14.5684   23.8009 N   0  0  0  0  0  0  0  0  0  0  0  0
    8.3522  -15.2781   26.0217 C   0  0  0  0  0  0  0  0  0  0  0  0
    8.5769  -14.9591   27.2498 O   0  0  0  0  0  0  0  0  0  0  0  0
    8.1173  -16.6041   25.7939 O   0  0  0  0  0  0  0  0  0  0  0  0
  2  1  1  6
  2  3  1  0
  3  4  1  0
  4  8  1  0
  5  4  2  0
  6  7  2  0
  6  2  1  0
  9  6  1  0
 10  9  1  0
 11 10  1  0
 12 11  1  0
 12 13  1  0
 13 14  1  1
 13  9  1  0
 14 21  1  0
 15 14  2  0
 17 16  1  0
 17 18  1  0
 19 18  1  0
 20 19  1  6
 21 20  1  0
 22 24  1  0
 22 20  1  0
 23 22  2  0
M  END
$$$$
