DPM.pdb
     RDKit          3D

 24 24  0  0  1  0  0  0  0  0999 V2000
   11.2963  -17.4643   18.1626 N   0  0  0  0  0  0  0  0  0  0  0  0
   11.3284  -17.9588   19.5248 C   0  0  1  0  0  0  0  0  0  0  0  0
   12.7503  -17.7199   20.0134 C   0  0  0  0  0  0  0  0  0  0  0  0
   13.6701  -18.4875   19.1442 C   0  0  0  0  0  0  0  0  0  0  0  0
   14.4927  -17.8980   18.4138 O   0  0  0  0  0  0  0  0  0  0  0  0
   10.3592  -17.2098   20.4082 C   0  0  0  0  0  0  0  0  0  0  0  0
   10.7241  -16.0346   20.6667 O   0  0  0  0  0  0  0  0  0  0  0  0
   13.6412  -19.8738   19.1195 O   0  0  0  0  0  0  0  0  0  0  0  0
    9.1853  -17.8063   20.8683 N   0  0  0  0  0  0  0  0  0  0  0  0
    8.4772  -18.8515   20.0785 C   0  0  0  0  0  0  0  0  0  0  0  0
    8.2885  -19.8962   21.1282 C   0  0  0  0  0  0  0  0  0  0  0  0
    8.3323  -19.1741   22.4678 C   0  0  0  0  0  0  0  0  0  0  0  0
    8.3632  -17.7090   22.0143 C   0  0  1  0  0  0  0  0  0  0  0  0
    8.7078  -16.8142   23.0948 C   0  0  0  0  0  0  0  0  0  0  0  0
    9.8454  -16.7538   23.5900 O   0  0  0  0  0  0  0  0  0  0  0  0
    6.6858  -10.4257   27.3885 C   0  0  0  0  0  0  0  0  0  0  0  0
    6.1179  -11.7405   26.2745 S   0  0  0  0  0  0  0  0  0  0  0  0
    7.3797  -13.0095   26.0370 C   0  0  0  0  0  0  0  0  0  0  0  0
    7.0402  -13.9496   24.9170 C   0  0  0  0  0  0  0  0  0  0  0  0
    8.0633  -15.0077   24.7575 C   0  0  2  0  0  0  0  0  0  0  0  0
    7.7409  -15.9234   23.6742 N   0  0  0  0  0  0  0  0  0  0  0  0
    8.3355  -15.7074   26.0100 C   0  0  0  0  0  0  0  0  0  0  0  0
    7.6268  -16.7592   26.2382 O   0  0  0  0  0  0  0  0  0  0  0  0
    9.2490  -15.3949   26.9761 O   0  0  0  0  0  0  0  0  0  0  0  0
  2  1  1  6
  2  3  1  0
  3  4  1  0
  4  8  1  0
  5  4  2  0
  6  7  2  0
  6  2  1  0
  9  6  1  0
 10  9  1  0
 11 10  1  0
 12 11  1  0
 12 13  1  0
 13 14  1  1
 13  9  1  0
 14 21  1  0
 15 14  2  0
 17 16  1  0
 17 18  1  0
 19 18  1  0
 20 19  1  1
 21 20  1  0
 22 24  1  0
 22 20  1  0
 23 22  2  0
M  END
$$$$
