DPM.pdb
     RDKit          3D

 24 24  0  0  1  0  0  0  0  0999 V2000
   10.6558  -16.2211   20.1836 N   0  0  0  0  0  0  0  0  0  0  0  0
   11.4515  -17.0270   21.0883 C   0  0  1  0  0  0  0  0  0  0  0  0
   12.8959  -16.6145   20.8410 C   0  0  0  0  0  0  0  0  0  0  0  0
   13.7675  -17.4671   21.6801 C   0  0  0  0  0  0  0  0  0  0  0  0
   13.5019  -18.6751   21.8477 O   0  0  0  0  0  0  0  0  0  0  0  0
   11.0906  -16.7597   22.5301 C   0  0  0  0  0  0  0  0  0  0  0  0
   11.6595  -15.7452   23.0080 O   0  0  0  0  0  0  0  0  0  0  0  0
   14.8954  -16.9480   22.2979 O   0  0  0  0  0  0  0  0  0  0  0  0
   10.2068  -17.5866   23.2234 N   0  0  0  0  0  0  0  0  0  0  0  0
    9.2231  -18.4503   22.5133 C   0  0  0  0  0  0  0  0  0  0  0  0
    9.4753  -19.7553   23.1931 C   0  0  0  0  0  0  0  0  0  0  0  0
   10.0790  -19.4245   24.5510 C   0  0  0  0  0  0  0  0  0  0  0  0
    9.9354  -17.8974   24.5756 C   0  0  1  0  0  0  0  0  0  0  0  0
   10.7073  -17.2973   25.6391 C   0  0  0  0  0  0  0  0  0  0  0  0
   11.9438  -17.3878   25.7153 O   0  0  0  0  0  0  0  0  0  0  0  0
    7.4622  -11.7876   26.8373 C   0  0  0  0  0  0  0  0  0  0  0  0
    8.4251  -12.6808   28.0892 S   0  0  0  0  0  0  0  0  0  0  0  0
    9.3846  -14.0264   27.3629 C   0  0  0  0  0  0  0  0  0  0  0  0
   10.1477  -14.8052   28.3948 C   0  0  0  0  0  0  0  0  0  0  0  0
   10.8302  -15.9790   27.8047 C   0  0  2  0  0  0  0  0  0  0  0  0
   10.0832  -16.5460   26.6928 N   0  0  0  0  0  0  0  0  0  0  0  0
   11.1732  -16.9822   28.8089 C   0  0  0  0  0  0  0  0  0  0  0  0
   10.4805  -18.0686   28.7854 O   0  0  0  0  0  0  0  0  0  0  0  0
   12.1382  -16.9228   29.7736 O   0  0  0  0  0  0  0  0  0  0  0  0
  2  1  1  6
  2  3  1  0
  3  4  1  0
  4  8  1  0
  5  4  2  0
  6  7  2  0
  6  2  1  0
  9  6  1  0
 10  9  1  0
 11 10  1  0
 12 11  1  0
 12 13  1  0
 13 14  1  1
 13  9  1  0
 14 21  1  0
 15 14  2  0
 17 16  1  0
 17 18  1  0
 19 18  1  0
 20 19  1  1
 21 20  1  0
 22 24  1  0
 22 20  1  0
 23 22  2  0
M  END
$$$$
