DPM.pdb
     RDKit          3D

 24 24  0  0  1  0  0  0  0  0999 V2000
   11.1566  -14.6511   18.1021 N   0  0  0  0  0  0  0  0  0  0  0  0
   11.5635  -15.3945   19.2782 C   0  0  1  0  0  0  0  0  0  0  0  0
   12.7892  -14.6696   19.8166 C   0  0  0  0  0  0  0  0  0  0  0  0
   13.9196  -14.9336   18.8984 C   0  0  0  0  0  0  0  0  0  0  0  0
   14.2278  -16.1035   18.5915 O   0  0  0  0  0  0  0  0  0  0  0  0
   10.4799  -15.4023   20.3299 C   0  0  0  0  0  0  0  0  0  0  0  0
   10.2239  -14.2614   20.7925 O   0  0  0  0  0  0  0  0  0  0  0  0
   14.6609  -13.8932   18.3586 O   0  0  0  0  0  0  0  0  0  0  0  0
    9.8525  -16.5861   20.7181 N   0  0  0  0  0  0  0  0  0  0  0  0
    9.5528  -17.6695   19.7413 C   0  0  0  0  0  0  0  0  0  0  0  0
   10.1098  -18.8470   20.4707 C   0  0  0  0  0  0  0  0  0  0  0  0
   10.1125  -18.4775   21.9476 C   0  0  0  0  0  0  0  0  0  0  0  0
    9.3588  -17.1418   21.9207 C   0  0  1  0  0  0  0  0  0  0  0  0
    9.4814  -16.4248   23.1689 C   0  0  0  0  0  0  0  0  0  0  0  0
   10.5740  -16.1782   23.7060 O   0  0  0  0  0  0  0  0  0  0  0  0
    6.6646  -10.6014   27.2417 C   0  0  0  0  0  0  0  0  0  0  0  0
    6.0533  -12.2067   26.6574 S   0  0  0  0  0  0  0  0  0  0  0  0
    7.3838  -13.4181   26.5116 C   0  0  0  0  0  0  0  0  0  0  0  0
    7.2628  -14.2523   25.2695 C   0  0  0  0  0  0  0  0  0  0  0  0
    8.4269  -15.1500   25.0940 C   0  0  2  0  0  0  0  0  0  0  0  0
    8.3288  -15.9440   23.8792 N   0  0  0  0  0  0  0  0  0  0  0  0
    8.6732  -15.9738   26.2743 C   0  0  0  0  0  0  0  0  0  0  0  0
    8.9574  -15.3399   27.3596 O   0  0  0  0  0  0  0  0  0  0  0  0
    8.6395  -17.3350   26.3819 O   0  0  0  0  0  0  0  0  0  0  0  0
  2  1  1  6
  2  3  1  0
  3  4  1  0
  4  8  1  0
  5  4  2  0
  6  7  2  0
  6  2  1  0
  9  6  1  0
 10  9  1  0
 11 10  1  0
 12 11  1  0
 12 13  1  0
 13 14  1  1
 13  9  1  0
 14 21  1  0
 15 14  2  0
 17 16  1  0
 17 18  1  0
 19 18  1  0
 20 19  1  1
 21 20  1  0
 22 24  1  0
 22 20  1  0
 23 22  2  0
M  END
$$$$
