DPM.pdb
     RDKit          3D

 24 24  0  0  1  0  0  0  0  0999 V2000
   10.8128  -17.2472   18.4450 N   0  0  0  0  0  0  0  0  0  0  0  0
    9.5638  -17.1727   19.1770 C   0  0  1  0  0  0  0  0  0  0  0  0
    9.2402  -18.6045   19.5807 C   0  0  0  0  0  0  0  0  0  0  0  0
    9.1831  -19.4269   18.3515 C   0  0  0  0  0  0  0  0  0  0  0  0
   10.1214  -20.1963   18.0587 O   0  0  0  0  0  0  0  0  0  0  0  0
    9.6981  -16.3180   20.4146 C   0  0  0  0  0  0  0  0  0  0  0  0
   10.8166  -16.4270   20.9786 O   0  0  0  0  0  0  0  0  0  0  0  0
    8.0915  -19.3639   17.4985 O   0  0  0  0  0  0  0  0  0  0  0  0
    8.6542  -15.5022   20.8511 N   0  0  0  0  0  0  0  0  0  0  0  0
    7.8326  -14.7057   19.8981 C   0  0  0  0  0  0  0  0  0  0  0  0
    6.4606  -15.0779   20.3540 C   0  0  0  0  0  0  0  0  0  0  0  0
    6.5934  -15.5197   21.8048 C   0  0  0  0  0  0  0  0  0  0  0  0
    8.0592  -15.1678   22.0892 C   0  0  1  0  0  0  0  0  0  0  0  0
    8.5309  -15.7626   23.3183 C   0  0  0  0  0  0  0  0  0  0  0  0
    8.5256  -16.9873   23.5260 O   0  0  0  0  0  0  0  0  0  0  0  0
   11.3918  -13.1660   29.6607 C   0  0  0  0  0  0  0  0  0  0  0  0
    9.6811  -13.6960   29.3697 S   0  0  0  0  0  0  0  0  0  0  0  0
    9.5854  -14.9976   28.1224 C   0  0  0  0  0  0  0  0  0  0  0  0
    9.1800  -14.4701   26.7767 C   0  0  0  0  0  0  0  0  0  0  0  0
    9.3062  -15.5005   25.7210 C   0  0  2  0  0  0  0  0  0  0  0  0
    9.0441  -14.9622   24.3954 N   0  0  0  0  0  0  0  0  0  0  0  0
    8.5014  -16.6854   26.0054 C   0  0  0  0  0  0  0  0  0  0  0  0
    7.2476  -16.6018   25.7198 O   0  0  0  0  0  0  0  0  0  0  0  0
    8.9041  -17.8785   26.5343 O   0  0  0  0  0  0  0  0  0  0  0  0
  2  1  1  1
  2  3  1  0
  3  4  1  0
  4  8  1  0
  5  4  2  0
  6  7  2  0
  6  2  1  0
  9  6  1  0
 10  9  1  0
 11 10  1  0
 12 11  1  0
 12 13  1  0
 13 14  1  1
 13  9  1  0
 14 21  1  0
 15 14  2  0
 17 16  1  0
 17 18  1  0
 19 18  1  0
 20 19  1  1
 21 20  1  0
 22 24  1  0
 22 20  1  0
 23 22  2  0
M  END
$$$$
