DPM.pdb
     RDKit          3D

 24 24  0  0  1  0  0  0  0  0999 V2000
   12.8924  -14.0124   18.7341 N   0  0  0  0  0  0  0  0  0  0  0  0
   11.6851  -14.8123   18.7979 C   0  0  1  0  0  0  0  0  0  0  0  0
   12.1489  -16.2601   18.7178 C   0  0  0  0  0  0  0  0  0  0  0  0
   12.8029  -16.4614   17.4054 C   0  0  0  0  0  0  0  0  0  0  0  0
   12.1213  -16.5456   16.3631 O   0  0  0  0  0  0  0  0  0  0  0  0
   10.9431  -14.5915   20.0945 C   0  0  0  0  0  0  0  0  0  0  0  0
   11.5819  -14.9747   21.1075 O   0  0  0  0  0  0  0  0  0  0  0  0
   14.1822  -16.5609   17.3011 O   0  0  0  0  0  0  0  0  0  0  0  0
    9.6734  -14.0145   20.1159 N   0  0  0  0  0  0  0  0  0  0  0  0
    9.2039  -13.1156   19.0254 C   0  0  0  0  0  0  0  0  0  0  0  0
    7.8751  -13.7280   18.7292 C   0  0  0  0  0  0  0  0  0  0  0  0
    7.4527  -14.4718   19.9887 C   0  0  0  0  0  0  0  0  0  0  0  0
    8.5478  -14.0374   20.9711 C   0  0  1  0  0  0  0  0  0  0  0  0
    8.5500  -14.8420   22.1710 C   0  0  0  0  0  0  0  0  0  0  0  0
    8.7084  -16.0740   22.1623 O   0  0  0  0  0  0  0  0  0  0  0  0
    5.7970  -11.0979   27.4847 C   0  0  0  0  0  0  0  0  0  0  0  0
    6.9483  -12.4992   27.5393 S   0  0  0  0  0  0  0  0  0  0  0  0
    7.2970  -13.1452   25.8901 C   0  0  0  0  0  0  0  0  0  0  0  0
    8.3557  -14.2093   25.9058 C   0  0  0  0  0  0  0  0  0  0  0  0
    8.3077  -15.0514   24.6890 C   0  0  2  0  0  0  0  0  0  0  0  0
    8.3659  -14.2585   23.4709 N   0  0  0  0  0  0  0  0  0  0  0  0
    7.1729  -15.9704   24.6965 C   0  0  0  0  0  0  0  0  0  0  0  0
    6.2149  -15.6959   23.8796 O   0  0  0  0  0  0  0  0  0  0  0  0
    6.9924  -17.0905   25.4569 O   0  0  0  0  0  0  0  0  0  0  0  0
  2  1  1  1
  2  3  1  0
  3  4  1  0
  4  8  1  0
  5  4  2  0
  6  7  2  0
  6  2  1  0
  9  6  1  0
 10  9  1  0
 11 10  1  0
 12 11  1  0
 12 13  1  0
 13 14  1  1
 13  9  1  0
 14 21  1  0
 15 14  2  0
 17 16  1  0
 17 18  1  0
 19 18  1  0
 20 19  1  1
 21 20  1  0
 22 24  1  0
 22 20  1  0
 23 22  2  0
M  END
$$$$
