DPM.pdb
     RDKit          3D

 24 24  0  0  1  0  0  0  0  0999 V2000
   10.3116  -18.8161   18.9926 N   0  0  0  0  0  0  0  0  0  0  0  0
   11.0702  -18.4007   20.1560 C   0  0  1  0  0  0  0  0  0  0  0  0
   12.1281  -17.4392   19.6326 C   0  0  0  0  0  0  0  0  0  0  0  0
   13.1267  -18.2239   18.8725 C   0  0  0  0  0  0  0  0  0  0  0  0
   13.0920  -18.2566   17.6253 O   0  0  0  0  0  0  0  0  0  0  0  0
   10.1960  -17.6899   21.1614 C   0  0  0  0  0  0  0  0  0  0  0  0
   10.6996  -16.6227   21.5957 O   0  0  0  0  0  0  0  0  0  0  0  0
   14.1210  -18.9386   19.5236 O   0  0  0  0  0  0  0  0  0  0  0  0
    8.9571  -18.2064   21.5408 N   0  0  0  0  0  0  0  0  0  0  0  0
    8.1951  -19.1367   20.6624 C   0  0  0  0  0  0  0  0  0  0  0  0
    7.8739  -20.2204   21.6377 C   0  0  0  0  0  0  0  0  0  0  0  0
    7.9240  -19.5850   23.0202 C   0  0  0  0  0  0  0  0  0  0  0  0
    8.0995  -18.1042   22.6601 C   0  0  1  0  0  0  0  0  0  0  0  0
    8.4746  -17.3084   23.8059 C   0  0  0  0  0  0  0  0  0  0  0  0
    9.5387  -17.4700   24.4261 O   0  0  0  0  0  0  0  0  0  0  0  0
    6.8676  -10.9195   25.3649 C   0  0  0  0  0  0  0  0  0  0  0  0
    6.5790  -11.8807   26.8765 S   0  0  0  0  0  0  0  0  0  0  0  0
    7.4284  -13.4729   26.8310 C   0  0  0  0  0  0  0  0  0  0  0  0
    7.1688  -14.2223   25.5564 C   0  0  0  0  0  0  0  0  0  0  0  0
    7.9671  -15.4666   25.4772 C   0  0  2  0  0  0  0  0  0  0  0  0
    7.6269  -16.2629   24.3085 N   0  0  0  0  0  0  0  0  0  0  0  0
    7.9050  -16.2433   26.7123 C   0  0  0  0  0  0  0  0  0  0  0  0
    6.9945  -17.1536   26.7652 O   0  0  0  0  0  0  0  0  0  0  0  0
    8.6904  -16.1342   27.8244 O   0  0  0  0  0  0  0  0  0  0  0  0
  2  1  1  6
  2  3  1  0
  3  4  1  0
  4  8  1  0
  5  4  2  0
  6  7  2  0
  6  2  1  0
  9  6  1  0
 10  9  1  0
 11 10  1  0
 12 11  1  0
 12 13  1  0
 13 14  1  1
 13  9  1  0
 14 21  1  0
 15 14  2  0
 17 16  1  0
 17 18  1  0
 19 18  1  0
 20 19  1  1
 21 20  1  0
 22 24  1  0
 22 20  1  0
 23 22  2  0
M  END
$$$$
