KYA.pdb
     RDKit          3D

 27 27  0  0  1  0  0  0  0  0999 V2000
    7.3648  -15.5802   20.9316 N   0  0  0  0  0  0  0  0  0  0  0  0
    8.5223  -14.7390   21.0482 C   0  0  1  0  0  0  0  0  0  0  0  0
    8.3126  -13.3556   20.5646 C   0  0  0  0  0  0  0  0  0  0  0  0
    7.6362  -13.2210   19.2429 C   0  0  0  0  0  0  0  0  0  0  0  0
    8.5205  -13.5691   18.0852 C   0  0  0  0  0  0  0  0  0  0  0  0
    7.7445  -13.4701   16.7641 C   0  0  0  0  0  0  0  0  0  0  0  0
    8.6214  -13.8067   15.6634 N   0  0  0  0  0  0  0  0  0  0  0  0
    9.1258  -14.7990   22.4086 C   0  0  0  0  0  0  0  0  0  0  0  0
   10.1450  -14.1098   22.7149 O   0  0  0  0  0  0  0  0  0  0  0  0
    5.8425  -10.5512   26.4866 O   0  0  0  0  0  0  0  0  0  0  0  0
    6.3612  -11.8171   26.3101 C   0  0  0  0  0  0  0  0  0  0  0  0
    5.5736  -12.8357   25.8579 C   0  0  0  0  0  0  0  0  0  0  0  0
    6.0942  -14.0807   25.6869 C   0  0  0  0  0  0  0  0  0  0  0  0
    7.4176  -14.3092   25.9716 C   0  0  0  0  0  0  0  0  0  0  0  0
    8.0367  -15.6240   25.8104 C   0  0  0  0  0  0  0  0  0  0  0  0
    9.1308  -15.6259   24.8050 C   0  0  2  0  0  0  0  0  0  0  0  0
    8.6003  -15.6260   23.4380 N   0  0  0  0  0  0  0  0  0  0  0  0
   10.0718  -16.7081   25.0303 C   0  0  0  0  0  0  0  0  0  0  0  0
   10.5116  -16.9549   26.1706 O   0  0  0  0  0  0  0  0  0  0  0  0
    8.2355  -13.2822   26.4336 C   0  0  0  0  0  0  0  0  0  0  0  0
    7.6882  -12.0350   26.5983 C   0  0  0  0  0  0  0  0  0  0  0  0
   11.1193  -19.5754   22.9331 C   0  0  0  0  0  0  0  0  0  0  0  0
   11.4558  -18.5803   24.0504 C   0  0  2  0  0  0  0  0  0  0  0  0
   10.5153  -17.5134   23.9554 N   0  0  0  0  0  0  0  0  0  0  0  0
   12.8506  -18.1806   23.8611 C   0  0  0  0  0  0  0  0  0  0  0  0
   13.1287  -17.0168   23.5079 O   0  0  0  0  0  0  0  0  0  0  0  0
   13.8743  -19.0787   24.0689 O   0  0  0  0  0  0  0  0  0  0  0  0
  2  3  1  0
  2  1  1  1
  4  3  1  0
  5  6  1  0
  5  4  1  0
  6  7  1  0
  8  2  1  0
  8  9  2  0
 10 11  1  0
 11 12  2  0
 12 13  1  0
 14 13  2  0
 14 15  1  0
 16 15  1  1
 16 17  1  0
 17  8  1  0
 18 16  1  0
 19 18  2  0
 20 14  1  0
 21 11  1  0
 21 20  2  0
 23 22  1  6
 23 25  1  0
 23 24  1  0
 24 18  1  0
 25 27  1  0
 26 25  2  0
M  END
$$$$
