KYA.pdb
     RDKit          3D

 27 27  0  0  1  0  0  0  0  0999 V2000
    8.5449  -17.7421   19.5659 N   0  0  0  0  0  0  0  0  0  0  0  0
    9.8613  -17.4964   20.0833 C   0  0  1  0  0  0  0  0  0  0  0  0
   10.8196  -16.9891   19.0753 C   0  0  0  0  0  0  0  0  0  0  0  0
   10.8420  -17.7135   17.7726 C   0  0  0  0  0  0  0  0  0  0  0  0
   12.1506  -18.3850   17.4891 C   0  0  0  0  0  0  0  0  0  0  0  0
   12.1098  -19.0941   16.1280 C   0  0  0  0  0  0  0  0  0  0  0  0
   13.3534  -19.8033   15.9164 N   0  0  0  0  0  0  0  0  0  0  0  0
    9.8323  -16.6786   21.3279 C   0  0  0  0  0  0  0  0  0  0  0  0
   10.8907  -16.4111   21.9727 O   0  0  0  0  0  0  0  0  0  0  0  0
    7.0008  -11.6942   27.9707 O   0  0  0  0  0  0  0  0  0  0  0  0
    7.1114  -12.3831   26.7807 C   0  0  0  0  0  0  0  0  0  0  0  0
    7.9628  -11.9544   25.8043 C   0  0  0  0  0  0  0  0  0  0  0  0
    8.0650  -12.6404   24.6341 C   0  0  0  0  0  0  0  0  0  0  0  0
    7.3067  -13.7680   24.4387 C   0  0  0  0  0  0  0  0  0  0  0  0
    7.3693  -14.5485   23.2038 C   0  0  0  0  0  0  0  0  0  0  0  0
    8.5757  -15.4127   23.1294 C   0  0  2  0  0  0  0  0  0  0  0  0
    8.6259  -16.1524   21.8643 N   0  0  0  0  0  0  0  0  0  0  0  0
    8.6880  -16.2868   24.2828 C   0  0  0  0  0  0  0  0  0  0  0  0
    7.7624  -17.0594   24.6006 O   0  0  0  0  0  0  0  0  0  0  0  0
    6.4332  -14.2197   25.4236 C   0  0  0  0  0  0  0  0  0  0  0  0
    6.3471  -13.5115   26.5954 C   0  0  0  0  0  0  0  0  0  0  0  0
   11.4472  -17.8642   25.8756 C   0  0  0  0  0  0  0  0  0  0  0  0
   10.1187  -17.1583   26.1735 C   0  0  2  0  0  0  0  0  0  0  0  0
    9.8571  -16.2834   25.0790 N   0  0  0  0  0  0  0  0  0  0  0  0
   10.2710  -16.4881   27.4653 C   0  0  0  0  0  0  0  0  0  0  0  0
   10.2493  -15.2425   27.5339 O   0  0  0  0  0  0  0  0  0  0  0  0
   10.4400  -17.2183   28.6212 O   0  0  0  0  0  0  0  0  0  0  0  0
  2  3  1  0
  2  1  1  6
  4  3  1  0
  5  6  1  0
  5  4  1  0
  6  7  1  0
  8  2  1  0
  8  9  2  0
 10 11  1  0
 11 12  2  0
 12 13  1  0
 14 13  2  0
 14 15  1  0
 16 15  1  1
 16 17  1  0
 17  8  1  0
 18 16  1  0
 19 18  2  0
 20 14  1  0
 21 11  1  0
 21 20  2  0
 23 22  1  6
 23 25  1  0
 23 24  1  0
 24 18  1  0
 25 27  1  0
 26 25  2  0
M  END
$$$$
