KYA.pdb
     RDKit          3D

 27 27  0  0  1  0  0  0  0  0999 V2000
   10.4711  -17.0694   18.8163 N   0  0  0  0  0  0  0  0  0  0  0  0
    9.1866  -16.8454   19.4172 C   0  0  1  0  0  0  0  0  0  0  0  0
    8.2944  -18.0265   19.3890 C   0  0  0  0  0  0  0  0  0  0  0  0
    8.9697  -19.3556   19.3911 C   0  0  0  0  0  0  0  0  0  0  0  0
    8.0128  -20.5077   19.4116 C   0  0  0  0  0  0  0  0  0  0  0  0
    8.7724  -21.8389   19.5027 C   0  0  0  0  0  0  0  0  0  0  0  0
    7.8271  -22.9346   19.4990 N   0  0  0  0  0  0  0  0  0  0  0  0
    9.2981  -16.2274   20.7678 C   0  0  0  0  0  0  0  0  0  0  0  0
   10.3276  -16.3888   21.4900 O   0  0  0  0  0  0  0  0  0  0  0  0
    7.1106  -12.0408   28.1810 O   0  0  0  0  0  0  0  0  0  0  0  0
    7.1591  -12.4931   26.8788 C   0  0  0  0  0  0  0  0  0  0  0  0
    8.0849  -12.0017   26.0049 C   0  0  0  0  0  0  0  0  0  0  0  0
    8.1250  -12.4538   24.7226 C   0  0  0  0  0  0  0  0  0  0  0  0
    7.2287  -13.4085   24.3100 C   0  0  0  0  0  0  0  0  0  0  0  0
    7.2187  -13.9344   22.9457 C   0  0  0  0  0  0  0  0  0  0  0  0
    8.3170  -14.9030   22.6940 C   0  0  2  0  0  0  0  0  0  0  0  0
    8.2654  -15.4254   21.3248 N   0  0  0  0  0  0  0  0  0  0  0  0
    8.3436  -15.9620   23.6865 C   0  0  0  0  0  0  0  0  0  0  0  0
    7.3931  -16.7601   23.8053 O   0  0  0  0  0  0  0  0  0  0  0  0
    6.2779  -13.9208   25.1877 C   0  0  0  0  0  0  0  0  0  0  0  0
    6.2566  -13.4496   26.4759 C   0  0  0  0  0  0  0  0  0  0  0  0
   10.8802  -17.9150   25.1738 C   0  0  0  0  0  0  0  0  0  0  0  0
    9.6087  -17.1356   25.5313 C   0  0  2  0  0  0  0  0  0  0  0  0
    9.4550  -16.1152   24.5478 N   0  0  0  0  0  0  0  0  0  0  0  0
    9.7797  -16.6422   26.8983 C   0  0  0  0  0  0  0  0  0  0  0  0
    9.8912  -15.4188   27.1159 O   0  0  0  0  0  0  0  0  0  0  0  0
    9.8203  -17.5167   27.9619 O   0  0  0  0  0  0  0  0  0  0  0  0
  2  3  1  0
  2  1  1  1
  4  3  1  0
  5  6  1  0
  5  4  1  0
  6  7  1  0
  8  2  1  0
  8  9  2  0
 10 11  1  0
 11 12  2  0
 12 13  1  0
 14 13  2  0
 14 15  1  0
 16 15  1  1
 16 17  1  0
 17  8  1  0
 18 16  1  0
 19 18  2  0
 20 14  1  0
 21 11  1  0
 21 20  2  0
 23 22  1  6
 23 25  1  0
 23 24  1  0
 24 18  1  0
 25 27  1  0
 26 25  2  0
M  END
$$$$
