KYA.pdb
     RDKit          3D

 27 27  0  0  1  0  0  0  0  0999 V2000
    6.7454  -16.1110   20.8177 N   0  0  0  0  0  0  0  0  0  0  0  0
    7.9317  -15.3374   20.5823 C   0  0  1  0  0  0  0  0  0  0  0  0
    7.6892  -14.0674   19.8612 C   0  0  0  0  0  0  0  0  0  0  0  0
    7.2378  -14.1954   18.4462 C   0  0  0  0  0  0  0  0  0  0  0  0
    8.0247  -13.3493   17.4931 C   0  0  0  0  0  0  0  0  0  0  0  0
    7.4181  -13.4162   16.0843 C   0  0  0  0  0  0  0  0  0  0  0  0
    8.2042  -12.6029   15.1817 N   0  0  0  0  0  0  0  0  0  0  0  0
    8.7436  -15.1634   21.8188 C   0  0  0  0  0  0  0  0  0  0  0  0
    9.9646  -14.8250   21.7705 O   0  0  0  0  0  0  0  0  0  0  0  0
   11.1097  -15.0644   30.2646 O   0  0  0  0  0  0  0  0  0  0  0  0
   10.3979  -14.9975   29.0849 C   0  0  0  0  0  0  0  0  0  0  0  0
   10.2884  -13.8204   28.4033 C   0  0  0  0  0  0  0  0  0  0  0  0
    9.5844  -13.7644   27.2408 C   0  0  0  0  0  0  0  0  0  0  0  0
    8.9832  -14.8988   26.7547 C   0  0  0  0  0  0  0  0  0  0  0  0
    8.2118  -14.9045   25.5125 C   0  0  0  0  0  0  0  0  0  0  0  0
    9.0206  -15.3115   24.3344 C   0  0  2  0  0  0  0  0  0  0  0  0
    8.2035  -15.3646   23.1179 N   0  0  0  0  0  0  0  0  0  0  0  0
    9.7367  -16.5518   24.5711 C   0  0  0  0  0  0  0  0  0  0  0  0
    9.1298  -17.6063   24.8438 O   0  0  0  0  0  0  0  0  0  0  0  0
    9.0844  -16.1078   27.4367 C   0  0  0  0  0  0  0  0  0  0  0  0
    9.7996  -16.1400   28.6070 C   0  0  0  0  0  0  0  0  0  0  0  0
   13.1132  -17.5867   23.5931 C   0  0  0  0  0  0  0  0  0  0  0  0
   11.9484  -17.7720   24.5734 C   0  0  2  0  0  0  0  0  0  0  0  0
   11.1485  -16.5946   24.4975 N   0  0  0  0  0  0  0  0  0  0  0  0
   12.5342  -18.0258   25.8901 C   0  0  0  0  0  0  0  0  0  0  0  0
   13.2354  -19.0398   26.0815 O   0  0  0  0  0  0  0  0  0  0  0  0
   12.3216  -17.1532   26.9348 O   0  0  0  0  0  0  0  0  0  0  0  0
  2  3  1  0
  2  1  1  1
  4  3  1  0
  5  6  1  0
  5  4  1  0
  6  7  1  0
  8  2  1  0
  8  9  2  0
 10 11  1  0
 11 12  2  0
 12 13  1  0
 14 13  2  0
 14 15  1  0
 16 15  1  1
 16 17  1  0
 17  8  1  0
 18 16  1  0
 19 18  2  0
 20 14  1  0
 21 11  1  0
 21 20  2  0
 23 22  1  6
 23 25  1  0
 23 24  1  0
 24 18  1  0
 25 27  1  0
 26 25  2  0
M  END
$$$$
