KYA.pdb
     RDKit          3D

 27 27  0  0  1  0  0  0  0  0999 V2000
    8.5445  -16.0690   20.1451 N   0  0  0  0  0  0  0  0  0  0  0  0
    9.3360  -14.8823   20.3070 C   0  0  1  0  0  0  0  0  0  0  0  0
    8.9272  -13.7615   19.4305 C   0  0  0  0  0  0  0  0  0  0  0  0
    8.0028  -14.1090   18.3138 C   0  0  0  0  0  0  0  0  0  0  0  0
    8.4673  -13.6081   16.9808 C   0  0  0  0  0  0  0  0  0  0  0  0
    7.4368  -13.9374   15.8913 C   0  0  0  0  0  0  0  0  0  0  0  0
    7.9504  -13.5270   14.6022 N   0  0  0  0  0  0  0  0  0  0  0  0
    9.4719  -14.4884   21.7370 C   0  0  0  0  0  0  0  0  0  0  0  0
    9.3028  -13.2902   22.1157 O   0  0  0  0  0  0  0  0  0  0  0  0
    5.8246  -11.3134   27.5021 O   0  0  0  0  0  0  0  0  0  0  0  0
    6.2944  -12.2508   26.6057 C   0  0  0  0  0  0  0  0  0  0  0  0
    6.8693  -11.8635   25.4303 C   0  0  0  0  0  0  0  0  0  0  0  0
    7.3297  -12.7952   24.5527 C   0  0  0  0  0  0  0  0  0  0  0  0
    7.2135  -14.1295   24.8545 C   0  0  0  0  0  0  0  0  0  0  0  0
    7.6868  -15.1794   23.9535 C   0  0  0  0  0  0  0  0  0  0  0  0
    9.1478  -15.4234   24.0710 C   0  0  2  0  0  0  0  0  0  0  0  0
    9.7969  -15.4242   22.7561 N   0  0  0  0  0  0  0  0  0  0  0  0
    9.4368  -16.6277   24.8282 C   0  0  0  0  0  0  0  0  0  0  0  0
    8.9349  -16.8196   25.9533 O   0  0  0  0  0  0  0  0  0  0  0  0
    6.6299  -14.5424   26.0485 C   0  0  0  0  0  0  0  0  0  0  0  0
    6.1729  -13.5847   26.9180 C   0  0  0  0  0  0  0  0  0  0  0  0
   11.1792  -19.7869   23.8722 C   0  0  0  0  0  0  0  0  0  0  0  0
   10.6586  -18.8349   24.9560 C   0  0  2  0  0  0  0  0  0  0  0  0
   10.2999  -17.6186   24.3050 N   0  0  0  0  0  0  0  0  0  0  0  0
   11.7209  -18.7009   25.9534 C   0  0  0  0  0  0  0  0  0  0  0  0
   12.1343  -19.7034   26.5703 O   0  0  0  0  0  0  0  0  0  0  0  0
   12.2791  -17.4712   26.2258 O   0  0  0  0  0  0  0  0  0  0  0  0
  2  3  1  0
  2  1  1  1
  4  3  1  0
  5  6  1  0
  5  4  1  0
  6  7  1  0
  8  2  1  0
  8  9  2  0
 10 11  1  0
 11 12  2  0
 12 13  1  0
 14 13  2  0
 14 15  1  0
 16 15  1  6
 16 17  1  0
 17  8  1  0
 18 16  1  0
 19 18  2  0
 20 14  1  0
 21 11  1  0
 21 20  2  0
 23 22  1  6
 23 25  1  0
 23 24  1  0
 24 18  1  0
 25 27  1  0
 26 25  2  0
M  END
$$$$
