KYA.pdb
     RDKit          3D

 27 27  0  0  1  0  0  0  0  0999 V2000
    7.3832  -16.5469   19.7878 N   0  0  0  0  0  0  0  0  0  0  0  0
    8.3762  -15.5101   19.7934 C   0  0  1  0  0  0  0  0  0  0  0  0
    8.0560  -14.3649   18.9116 C   0  0  0  0  0  0  0  0  0  0  0  0
    8.4170  -14.5262   17.4742 C   0  0  0  0  0  0  0  0  0  0  0  0
    7.3211  -14.1199   16.5376 C   0  0  0  0  0  0  0  0  0  0  0  0
    7.8734  -13.2332   15.4125 C   0  0  0  0  0  0  0  0  0  0  0  0
    8.4987  -14.0644   14.4064 N   0  0  0  0  0  0  0  0  0  0  0  0
    8.7514  -15.0989   21.1750 C   0  0  0  0  0  0  0  0  0  0  0  0
    9.8704  -14.5587   21.4272 O   0  0  0  0  0  0  0  0  0  0  0  0
    8.5653  -13.1449   29.6750 O   0  0  0  0  0  0  0  0  0  0  0  0
    8.2098  -13.4631   28.3808 C   0  0  0  0  0  0  0  0  0  0  0  0
    7.5731  -14.6375   28.1021 C   0  0  0  0  0  0  0  0  0  0  0  0
    7.2265  -14.9426   26.8226 C   0  0  0  0  0  0  0  0  0  0  0  0
    7.5201  -14.0626   25.8105 C   0  0  0  0  0  0  0  0  0  0  0  0
    7.1757  -14.3321   24.4152 C   0  0  0  0  0  0  0  0  0  0  0  0
    8.2825  -14.9783   23.6634 C   0  0  2  0  0  0  0  0  0  0  0  0
    7.8848  -15.2855   22.2859 N   0  0  0  0  0  0  0  0  0  0  0  0
    8.8029  -16.1416   24.3585 C   0  0  0  0  0  0  0  0  0  0  0  0
    8.0848  -17.1366   24.5799 O   0  0  0  0  0  0  0  0  0  0  0  0
    8.1689  -12.8604   26.0764 C   0  0  0  0  0  0  0  0  0  0  0  0
    8.5087  -12.5745   27.3744 C   0  0  0  0  0  0  0  0  0  0  0  0
   12.2293  -17.3224   24.8221 C   0  0  0  0  0  0  0  0  0  0  0  0
   10.8007  -17.3020   25.3796 C   0  0  2  0  0  0  0  0  0  0  0  0
   10.1448  -16.1750   24.8039 N   0  0  0  0  0  0  0  0  0  0  0  0
   10.9116  -17.2621   26.8382 C   0  0  0  0  0  0  0  0  0  0  0  0
   10.5168  -16.2624   27.4716 O   0  0  0  0  0  0  0  0  0  0  0  0
   11.4510  -18.3229   27.5321 O   0  0  0  0  0  0  0  0  0  0  0  0
  2  3  1  0
  2  1  1  1
  4  3  1  0
  5  6  1  0
  5  4  1  0
  6  7  1  0
  8  2  1  0
  8  9  2  0
 10 11  1  0
 11 12  2  0
 12 13  1  0
 14 13  2  0
 14 15  1  0
 16 15  1  1
 16 17  1  0
 17  8  1  0
 18 16  1  0
 19 18  2  0
 20 14  1  0
 21 11  1  0
 21 20  2  0
 23 22  1  6
 23 25  1  0
 23 24  1  0
 24 18  1  0
 25 27  1  0
 26 25  2  0
M  END
$$$$
