KYA.pdb
     RDKit          3D

 27 27  0  0  1  0  0  0  0  0999 V2000
    7.1559  -15.9626   20.6231 N   0  0  0  0  0  0  0  0  0  0  0  0
    8.0963  -14.8964   20.8227 C   0  0  1  0  0  0  0  0  0  0  0  0
    7.5567  -13.5522   20.5166 C   0  0  0  0  0  0  0  0  0  0  0  0
    7.8766  -13.0121   19.1644 C   0  0  0  0  0  0  0  0  0  0  0  0
    7.8210  -14.0471   18.0832 C   0  0  0  0  0  0  0  0  0  0  0  0
    8.1643  -13.4251   16.7222 C   0  0  0  0  0  0  0  0  0  0  0  0
    8.2509  -14.4686   15.7233 N   0  0  0  0  0  0  0  0  0  0  0  0
    8.7580  -14.9727   22.1549 C   0  0  0  0  0  0  0  0  0  0  0  0
    9.8391  -14.3560   22.3968 O   0  0  0  0  0  0  0  0  0  0  0  0
    6.1064  -10.6309   26.5063 O   0  0  0  0  0  0  0  0  0  0  0  0
    6.5999  -11.9022   26.2991 C   0  0  0  0  0  0  0  0  0  0  0  0
    7.9424  -12.1437   26.3414 C   0  0  0  0  0  0  0  0  0  0  0  0
    8.4196  -13.4008   26.1358 C   0  0  0  0  0  0  0  0  0  0  0  0
    7.5438  -14.4279   25.8850 C   0  0  0  0  0  0  0  0  0  0  0  0
    7.9929  -15.8002   25.6544 C   0  0  0  0  0  0  0  0  0  0  0  0
    8.9242  -15.9153   24.5024 C   0  0  2  0  0  0  0  0  0  0  0  0
    8.2221  -15.7355   23.2277 N   0  0  0  0  0  0  0  0  0  0  0  0
    9.6852  -17.1508   24.5422 C   0  0  0  0  0  0  0  0  0  0  0  0
    9.1393  -18.2527   24.3356 O   0  0  0  0  0  0  0  0  0  0  0  0
    6.1716  -14.1998   25.8383 C   0  0  0  0  0  0  0  0  0  0  0  0
    5.7138  -12.9238   26.0487 C   0  0  0  0  0  0  0  0  0  0  0  0
   13.3491  -17.8064   24.6528 C   0  0  0  0  0  0  0  0  0  0  0  0
   11.9138  -18.2817   24.9098 C   0  0  2  0  0  0  0  0  0  0  0  0
   11.0724  -17.1348   24.8177 N   0  0  0  0  0  0  0  0  0  0  0  0
   11.9082  -18.9369   26.2182 C   0  0  0  0  0  0  0  0  0  0  0  0
   11.2799  -18.4331   27.1710 O   0  0  0  0  0  0  0  0  0  0  0  0
   12.5934  -20.1152   26.4178 O   0  0  0  0  0  0  0  0  0  0  0  0
  2  3  1  0
  2  1  1  1
  4  3  1  0
  5  6  1  0
  5  4  1  0
  6  7  1  0
  8  2  1  0
  8  9  2  0
 10 11  1  0
 11 12  2  0
 12 13  1  0
 14 13  2  0
 14 15  1  0
 16 15  1  1
 16 17  1  0
 17  8  1  0
 18 16  1  0
 19 18  2  0
 20 14  1  0
 21 11  1  0
 21 20  2  0
 23 22  1  1
 23 25  1  0
 23 24  1  0
 24 18  1  0
 25 27  1  0
 26 25  2  0
M  END
$$$$
