KYA.pdb
     RDKit          3D

 27 27  0  0  1  0  0  0  0  0999 V2000
    8.4196  -13.0938   18.0357 N   0  0  0  0  0  0  0  0  0  0  0  0
    7.9110  -14.1151   18.9070 C   0  0  1  0  0  0  0  0  0  0  0  0
    8.1966  -15.4939   18.4498 C   0  0  0  0  0  0  0  0  0  0  0  0
    7.8066  -15.8108   17.0463 C   0  0  0  0  0  0  0  0  0  0  0  0
    8.1023  -17.2255   16.6529 C   0  0  0  0  0  0  0  0  0  0  0  0
    7.8441  -17.4343   15.1539 C   0  0  0  0  0  0  0  0  0  0  0  0
    8.1232  -18.8103   14.8037 N   0  0  0  0  0  0  0  0  0  0  0  0
    8.2874  -13.8794   20.3287 C   0  0  0  0  0  0  0  0  0  0  0  0
    9.3812  -13.3204   20.6432 O   0  0  0  0  0  0  0  0  0  0  0  0
    7.3263  -12.7729   28.9842 O   0  0  0  0  0  0  0  0  0  0  0  0
    7.1253  -12.9355   27.6292 C   0  0  0  0  0  0  0  0  0  0  0  0
    7.2575  -11.8804   26.7739 C   0  0  0  0  0  0  0  0  0  0  0  0
    7.0573  -12.0506   25.4393 C   0  0  0  0  0  0  0  0  0  0  0  0
    6.7210  -13.2904   24.9549 C   0  0  0  0  0  0  0  0  0  0  0  0
    6.4912  -13.5385   23.5323 C   0  0  0  0  0  0  0  0  0  0  0  0
    7.7342  -13.8995   22.8027 C   0  0  2  0  0  0  0  0  0  0  0  0
    7.4502  -14.2637   21.4110 N   0  0  0  0  0  0  0  0  0  0  0  0
    8.4913  -14.9254   23.4966 C   0  0  0  0  0  0  0  0  0  0  0  0
    8.7558  -14.8231   24.7108 O   0  0  0  0  0  0  0  0  0  0  0  0
    6.5819  -14.3776   25.8126 C   0  0  0  0  0  0  0  0  0  0  0  0
    6.7888  -14.1818   27.1546 C   0  0  0  0  0  0  0  0  0  0  0  0
   10.3303  -17.9221   22.2280 C   0  0  0  0  0  0  0  0  0  0  0  0
    9.6879  -17.1472   23.3851 C   0  0  2  0  0  0  0  0  0  0  0  0
    8.9501  -16.0726   22.8082 N   0  0  0  0  0  0  0  0  0  0  0  0
   10.7723  -16.7318   24.2755 C   0  0  0  0  0  0  0  0  0  0  0  0
   10.7673  -17.0750   25.4750 O   0  0  0  0  0  0  0  0  0  0  0  0
   11.8113  -15.9587   23.8058 O   0  0  0  0  0  0  0  0  0  0  0  0
  2  3  1  0
  2  1  1  6
  4  3  1  0
  5  6  1  0
  5  4  1  0
  6  7  1  0
  8  2  1  0
  8  9  2  0
 10 11  1  0
 11 12  2  0
 12 13  1  0
 14 13  2  0
 14 15  1  0
 16 15  1  1
 16 17  1  0
 17  8  1  0
 18 16  1  0
 19 18  2  0
 20 14  1  0
 21 11  1  0
 21 20  2  0
 23 22  1  6
 23 25  1  0
 23 24  1  0
 24 18  1  0
 25 27  1  0
 26 25  2  0
M  END
$$$$
