KYA.pdb
     RDKit          3D

 27 27  0  0  1  0  0  0  0  0999 V2000
    7.3217  -16.6998   21.5914 N   0  0  0  0  0  0  0  0  0  0  0  0
    8.4582  -15.8260   21.6688 C   0  0  1  0  0  0  0  0  0  0  0  0
    8.2103  -14.4670   21.1365 C   0  0  0  0  0  0  0  0  0  0  0  0
    7.2389  -14.3740   20.0094 C   0  0  0  0  0  0  0  0  0  0  0  0
    7.2051  -13.0224   19.3648 C   0  0  0  0  0  0  0  0  0  0  0  0
    8.4810  -12.7829   18.5452 C   0  0  0  0  0  0  0  0  0  0  0  0
    8.4078  -11.4863   17.9069 N   0  0  0  0  0  0  0  0  0  0  0  0
    9.0715  -15.8208   23.0262 C   0  0  0  0  0  0  0  0  0  0  0  0
   10.1340  -15.1745   23.2733 O   0  0  0  0  0  0  0  0  0  0  0  0
    6.5522  -10.7333   25.9490 O   0  0  0  0  0  0  0  0  0  0  0  0
    6.9516  -12.0464   26.0873 C   0  0  0  0  0  0  0  0  0  0  0  0
    8.2056  -12.3498   26.5318 C   0  0  0  0  0  0  0  0  0  0  0  0
    8.5903  -13.6477   26.6650 C   0  0  0  0  0  0  0  0  0  0  0  0
    7.7104  -14.6534   26.3500 C   0  0  0  0  0  0  0  0  0  0  0  0
    8.0630  -16.0674   26.4700 C   0  0  0  0  0  0  0  0  0  0  0  0
    9.0751  -16.4953   25.4699 C   0  0  2  0  0  0  0  0  0  0  0  0
    8.5076  -16.5342   24.1183 N   0  0  0  0  0  0  0  0  0  0  0  0
    9.7046  -17.7502   25.8388 C   0  0  0  0  0  0  0  0  0  0  0  0
    9.0661  -18.8211   25.8274 O   0  0  0  0  0  0  0  0  0  0  0  0
    6.4276  -14.3623   25.8953 C   0  0  0  0  0  0  0  0  0  0  0  0
    6.0622  -13.0460   25.7690 C   0  0  0  0  0  0  0  0  0  0  0  0
   13.2585  -18.6769   26.4749 C   0  0  0  0  0  0  0  0  0  0  0  0
   11.7632  -18.9398   26.6919 C   0  0  2  0  0  0  0  0  0  0  0  0
   11.0654  -17.7889   26.2224 N   0  0  0  0  0  0  0  0  0  0  0  0
   11.5812  -19.2229   28.1159 C   0  0  0  0  0  0  0  0  0  0  0  0
   10.9143  -18.4479   28.8309 O   0  0  0  0  0  0  0  0  0  0  0  0
   12.1405  -20.3447   28.6874 O   0  0  0  0  0  0  0  0  0  0  0  0
  2  3  1  0
  2  1  1  1
  4  3  1  0
  5  6  1  0
  5  4  1  0
  6  7  1  0
  8  2  1  0
  8  9  2  0
 10 11  1  0
 11 12  2  0
 12 13  1  0
 14 13  2  0
 14 15  1  0
 16 15  1  1
 16 17  1  0
 17  8  1  0
 18 16  1  0
 19 18  2  0
 20 14  1  0
 21 11  1  0
 21 20  2  0
 23 22  1  1
 23 25  1  0
 23 24  1  0
 24 18  1  0
 25 27  1  0
 26 25  2  0
M  END
$$$$
