YEK.pdb
     RDKit          3D

 31 31  0  0  1  0  0  0  0  0999 V2000
    8.9355  -11.7734   19.3954 O   0  0  0  0  0  0  0  0  0  0  0  0
    8.2415  -12.7968   20.0306 C   0  0  0  0  0  0  0  0  0  0  0  0
    8.4770  -13.1192   21.3594 C   0  0  0  0  0  0  0  0  0  0  0  0
    7.7816  -14.1380   21.9811 C   0  0  0  0  0  0  0  0  0  0  0  0
    6.8270  -14.8763   21.3120 C   0  0  0  0  0  0  0  0  0  0  0  0
    6.0682  -15.9788   21.9663 C   0  0  0  0  0  0  0  0  0  0  0  0
    6.4178  -17.2860   21.3074 C   0  0  2  0  0  0  0  0  0  0  0  0
    5.6376  -18.3848   21.8230 N   0  0  0  0  0  0  0  0  0  0  0  0
    7.8960  -17.5389   21.5474 C   0  0  0  0  0  0  0  0  0  0  0  0
    8.2918  -17.9058   22.6747 O   0  0  0  0  0  0  0  0  0  0  0  0
    6.5938  -14.5524   19.9859 C   0  0  0  0  0  0  0  0  0  0  0  0
    7.2883  -13.5339   19.3625 C   0  0  0  0  0  0  0  0  0  0  0  0
    8.8191  -17.3591   20.4958 N   0  0  0  0  0  0  0  0  0  0  0  0
   10.2198  -17.5749   20.5785 C   0  0  1  0  0  0  0  0  0  0  0  0
   10.9775  -17.5716   19.2721 C   0  0  0  0  0  0  0  0  0  0  0  0
   12.4109  -17.9597   19.3743 C   0  0  0  0  0  0  0  0  0  0  0  0
   13.1089  -17.9174   18.0502 C   0  0  0  0  0  0  0  0  0  0  0  0
   14.2209  -18.4610   17.8672 O   0  0  0  0  0  0  0  0  0  0  0  0
   10.8861  -16.8582   21.6779 C   0  0  0  0  0  0  0  0  0  0  0  0
   10.8579  -15.5911   21.7730 O   0  0  0  0  0  0  0  0  0  0  0  0
   12.5346  -17.2654   16.9744 O   0  0  0  0  0  0  0  0  0  0  0  0
   11.6068  -17.5110   22.7126 N   0  0  0  0  0  0  0  0  0  0  0  0
   12.2215  -16.7736   23.8111 C   0  0  1  0  0  0  0  0  0  0  0  0
   12.3042  -17.7178   24.9804 C   0  0  0  0  0  0  0  0  0  0  0  0
   11.4605  -17.3692   26.1526 C   0  0  0  0  0  0  0  0  0  0  0  0
   11.5718  -18.4488   27.2444 C   0  0  0  0  0  0  0  0  0  0  0  0
   10.6822  -18.0079   28.3794 C   0  0  0  0  0  0  0  0  0  0  0  0
   10.7386  -19.0655   29.3959 N   0  0  0  0  0  0  0  0  0  0  0  0
   13.5758  -16.3491   23.4289 C   0  0  0  0  0  0  0  0  0  0  0  0
   14.1999  -16.9728   22.5329 O   0  0  0  0  0  0  0  0  0  0  0  0
   14.1364  -15.2523   24.0800 O   0  0  0  0  0  0  0  0  0  0  0  0
  2  1  1  0
  3  2  2  0
  4  3  1  0
  5 11  1  0
  5  4  2  0
  6  5  1  0
  7  6  1  0
  7  8  1  1
  9  7  1  0
  9 10  2  0
 11 12  2  0
 12  2  1  0
 13  9  1  0
 14 13  1  0
 14 15  1  6
 15 16  1  0
 17 21  1  0
 17 16  1  0
 18 17  2  0
 19 14  1  0
 20 19  2  0
 22 19  1  0
 23 22  1  0
 23 24  1  1
 25 24  1  0
 26 27  1  0
 26 25  1  0
 28 27  1  0
 29 23  1  0
 29 31  1  0
 30 29  2  0
M  END
$$$$
