YEK.pdb
     RDKit          3D

 31 31  0  0  1  0  0  0  0  0999 V2000
    8.1791  -12.5486   18.1254 O   0  0  0  0  0  0  0  0  0  0  0  0
    7.8898  -13.2050   19.3161 C   0  0  0  0  0  0  0  0  0  0  0  0
    7.9364  -12.5489   20.5378 C   0  0  0  0  0  0  0  0  0  0  0  0
    7.6470  -13.2106   21.7153 C   0  0  0  0  0  0  0  0  0  0  0  0
    7.3006  -14.5463   21.7288 C   0  0  0  0  0  0  0  0  0  0  0  0
    6.9861  -15.2759   22.9890 C   0  0  0  0  0  0  0  0  0  0  0  0
    6.9955  -16.7575   22.7246 C   0  0  2  0  0  0  0  0  0  0  0  0
    6.1112  -17.4770   23.6089 N   0  0  0  0  0  0  0  0  0  0  0  0
    8.4224  -17.2457   22.9044 C   0  0  0  0  0  0  0  0  0  0  0  0
    8.8375  -17.5566   24.0415 O   0  0  0  0  0  0  0  0  0  0  0  0
    7.2548  -15.1988   20.5081 C   0  0  0  0  0  0  0  0  0  0  0  0
    7.5439  -14.5386   19.3297 C   0  0  0  0  0  0  0  0  0  0  0  0
    9.2761  -17.3475   21.7858 N   0  0  0  0  0  0  0  0  0  0  0  0
   10.6411  -17.7360   21.8194 C   0  0  1  0  0  0  0  0  0  0  0  0
   11.3719  -17.7346   20.4977 C   0  0  0  0  0  0  0  0  0  0  0  0
   12.7704  -18.2419   20.5507 C   0  0  0  0  0  0  0  0  0  0  0  0
   13.4306  -18.2352   19.2067 C   0  0  0  0  0  0  0  0  0  0  0  0
   13.0058  -18.9259   18.2539 O   0  0  0  0  0  0  0  0  0  0  0  0
   11.4081  -17.1822   22.9470 C   0  0  0  0  0  0  0  0  0  0  0  0
   11.6724  -15.9425   23.0397 O   0  0  0  0  0  0  0  0  0  0  0  0
   14.5472  -17.4524   18.9770 O   0  0  0  0  0  0  0  0  0  0  0  0
   11.9109  -17.9734   24.0134 N   0  0  0  0  0  0  0  0  0  0  0  0
   12.5143  -17.3778   25.2007 C   0  0  1  0  0  0  0  0  0  0  0  0
   12.0390  -18.1794   26.3826 C   0  0  0  0  0  0  0  0  0  0  0  0
   12.6672  -17.8421   27.6861 C   0  0  0  0  0  0  0  0  0  0  0  0
   12.1645  -18.7858   28.7937 C   0  0  0  0  0  0  0  0  0  0  0  0
   12.7967  -18.3168   30.0799 C   0  0  0  0  0  0  0  0  0  0  0  0
   12.4463  -19.3046   31.1077 N   0  0  0  0  0  0  0  0  0  0  0  0
   13.9789  -17.4623   25.1099 C   0  0  0  0  0  0  0  0  0  0  0  0
   14.6963  -16.7109   25.8184 O   0  0  0  0  0  0  0  0  0  0  0  0
   14.5374  -18.3858   24.2288 O   0  0  0  0  0  0  0  0  0  0  0  0
  2  1  1  0
  3  2  2  0
  4  3  1  0
  5 11  1  0
  5  4  2  0
  6  5  1  0
  7  6  1  0
  7  8  1  1
  9  7  1  0
  9 10  2  0
 11 12  2  0
 12  2  1  0
 13  9  1  0
 14 13  1  0
 14 15  1  6
 15 16  1  0
 17 21  1  0
 17 16  1  0
 18 17  2  0
 19 14  1  0
 20 19  2  0
 22 19  1  0
 23 22  1  0
 23 24  1  1
 25 24  1  0
 26 27  1  0
 26 25  1  0
 28 27  1  0
 29 23  1  0
 29 31  1  0
 30 29  2  0
M  END
$$$$
