YEK.pdb
     RDKit          3D

 31 31  0  0  1  0  0  0  0  0999 V2000
   11.4463  -15.8469   31.3385 O   0  0  0  0  0  0  0  0  0  0  0  0
   11.0120  -15.3786   30.1037 C   0  0  0  0  0  0  0  0  0  0  0  0
    9.9293  -14.5180   29.9924 C   0  0  0  0  0  0  0  0  0  0  0  0
    9.5060  -14.0585   28.7605 C   0  0  0  0  0  0  0  0  0  0  0  0
   10.1376  -14.4328   27.5921 C   0  0  0  0  0  0  0  0  0  0  0  0
    9.6943  -13.9478   26.2551 C   0  0  0  0  0  0  0  0  0  0  0  0
    8.8483  -15.0035   25.5956 C   0  0  2  0  0  0  0  0  0  0  0  0
    9.0152  -16.2997   26.2072 N   0  0  0  0  0  0  0  0  0  0  0  0
    9.2488  -15.0628   24.1318 C   0  0  0  0  0  0  0  0  0  0  0  0
    9.2016  -14.0303   23.4291 O   0  0  0  0  0  0  0  0  0  0  0  0
   11.2179  -15.2918   27.7060 C   0  0  0  0  0  0  0  0  0  0  0  0
   11.6426  -15.7523   28.9372 C   0  0  0  0  0  0  0  0  0  0  0  0
    9.6741  -16.2846   23.5689 N   0  0  0  0  0  0  0  0  0  0  0  0
   10.1780  -16.4584   22.2532 C   0  0  1  0  0  0  0  0  0  0  0  0
   11.2479  -17.5099   22.0779 C   0  0  0  0  0  0  0  0  0  0  0  0
   11.7513  -17.6704   20.6863 C   0  0  0  0  0  0  0  0  0  0  0  0
   12.7713  -18.7605   20.5711 C   0  0  0  0  0  0  0  0  0  0  0  0
   12.6255  -19.8694   21.1319 O   0  0  0  0  0  0  0  0  0  0  0  0
    9.1527  -16.4421   21.1974 C   0  0  0  0  0  0  0  0  0  0  0  0
    8.0219  -17.0032   21.3454 O   0  0  0  0  0  0  0  0  0  0  0  0
   13.9227  -18.5690   19.8294 O   0  0  0  0  0  0  0  0  0  0  0  0
    9.3352  -15.8066   19.9408 N   0  0  0  0  0  0  0  0  0  0  0  0
    8.3312  -15.8780   18.8848 C   0  0  1  0  0  0  0  0  0  0  0  0
    8.5165  -14.6595   18.0209 C   0  0  0  0  0  0  0  0  0  0  0  0
    7.6607  -14.5915   16.8083 C   0  0  0  0  0  0  0  0  0  0  0  0
    8.0762  -13.4096   15.9137 C   0  0  0  0  0  0  0  0  0  0  0  0
    7.1435  -13.4166   14.7288 C   0  0  0  0  0  0  0  0  0  0  0  0
    7.6324  -12.3902   13.8001 N   0  0  0  0  0  0  0  0  0  0  0  0
    8.5443  -17.0871   18.0767 C   0  0  0  0  0  0  0  0  0  0  0  0
    7.5699  -17.8252   17.7818 O   0  0  0  0  0  0  0  0  0  0  0  0
    9.8385  -17.3842   17.6550 O   0  0  0  0  0  0  0  0  0  0  0  0
  2  1  1  0
  3  2  2  0
  4  3  1  0
  5 11  1  0
  5  4  2  0
  6  5  1  0
  7  6  1  0
  7  8  1  1
  9  7  1  0
  9 10  2  0
 11 12  2  0
 12  2  1  0
 13  9  1  0
 14 13  1  0
 14 15  1  1
 15 16  1  0
 17 21  1  0
 17 16  1  0
 18 17  2  0
 19 14  1  0
 20 19  2  0
 22 19  1  0
 23 22  1  0
 23 24  1  6
 25 24  1  0
 26 27  1  0
 26 25  1  0
 28 27  1  0
 29 23  1  0
 29 31  1  0
 30 29  2  0
M  END
$$$$
