YEK.pdb
     RDKit          3D

 31 31  0  0  1  0  0  0  0  0999 V2000
    7.2961  -13.4339   26.4953 O   0  0  0  0  0  0  0  0  0  0  0  0
    7.3175  -13.7548   25.1429 C   0  0  0  0  0  0  0  0  0  0  0  0
    6.9524  -15.0140   24.6887 C   0  0  0  0  0  0  0  0  0  0  0  0
    6.9772  -15.3225   23.3425 C   0  0  0  0  0  0  0  0  0  0  0  0
    7.3641  -14.3971   22.3947 C   0  0  0  0  0  0  0  0  0  0  0  0
    7.3976  -14.7126   20.9392 C   0  0  0  0  0  0  0  0  0  0  0  0
    7.2699  -16.1998   20.7468 C   0  0  2  0  0  0  0  0  0  0  0  0
    6.1325  -16.7465   21.4464 N   0  0  0  0  0  0  0  0  0  0  0  0
    8.5505  -16.8389   21.2551 C   0  0  0  0  0  0  0  0  0  0  0  0
    8.5311  -17.5382   22.2908 O   0  0  0  0  0  0  0  0  0  0  0  0
    7.7279  -13.1411   22.8508 C   0  0  0  0  0  0  0  0  0  0  0  0
    7.7037  -12.8309   24.1966 C   0  0  0  0  0  0  0  0  0  0  0  0
    9.7596  -16.6416   20.5555 N   0  0  0  0  0  0  0  0  0  0  0  0
   10.9975  -17.2714   20.8489 C   0  0  1  0  0  0  0  0  0  0  0  0
   12.0555  -17.2056   19.7731 C   0  0  0  0  0  0  0  0  0  0  0  0
   13.2892  -17.9898   20.0541 C   0  0  0  0  0  0  0  0  0  0  0  0
   14.3002  -17.8751   18.9556 C   0  0  0  0  0  0  0  0  0  0  0  0
   15.3305  -18.5842   18.9236 O   0  0  0  0  0  0  0  0  0  0  0  0
   11.4941  -17.0398   22.2150 C   0  0  0  0  0  0  0  0  0  0  0  0
   11.6624  -15.8702   22.6830 O   0  0  0  0  0  0  0  0  0  0  0  0
   14.1206  -16.9671   17.9282 O   0  0  0  0  0  0  0  0  0  0  0  0
   11.8224  -18.0877   23.1152 N   0  0  0  0  0  0  0  0  0  0  0  0
   12.2988  -17.8240   24.4686 C   0  0  1  0  0  0  0  0  0  0  0  0
   11.6649  -18.8539   25.3646 C   0  0  0  0  0  0  0  0  0  0  0  0
   12.1334  -18.8590   26.7746 C   0  0  0  0  0  0  0  0  0  0  0  0
   11.3711  -19.9128   27.5982 C   0  0  0  0  0  0  0  0  0  0  0  0
   11.9453  -19.8690   28.9920 C   0  0  0  0  0  0  0  0  0  0  0  0
   11.3209  -20.9665   29.7408 N   0  0  0  0  0  0  0  0  0  0  0  0
   13.7609  -17.9665   24.5179 C   0  0  0  0  0  0  0  0  0  0  0  0
   14.4221  -17.3560   25.3961 O   0  0  0  0  0  0  0  0  0  0  0  0
   14.3802  -18.7858   23.5765 O   0  0  0  0  0  0  0  0  0  0  0  0
  2  1  1  0
  3  2  2  0
  4  3  1  0
  5 11  1  0
  5  4  2  0
  6  5  1  0
  7  6  1  0
  7  8  1  1
  9  7  1  0
  9 10  2  0
 11 12  2  0
 12  2  1  0
 13  9  1  0
 14 13  1  0
 14 15  1  6
 15 16  1  0
 17 21  1  0
 17 16  1  0
 18 17  2  0
 19 14  1  0
 20 19  2  0
 22 19  1  0
 23 22  1  0
 23 24  1  1
 25 24  1  0
 26 27  1  0
 26 25  1  0
 28 27  1  0
 29 23  1  0
 29 31  1  0
 30 29  2  0
M  END
$$$$
