YEK.pdb
     RDKit          3D

 31 31  0  0  1  0  0  0  0  0999 V2000
    7.4198  -12.4765   16.9405 O   0  0  0  0  0  0  0  0  0  0  0  0
    7.7208  -13.1808   18.1006 C   0  0  0  0  0  0  0  0  0  0  0  0
    8.4591  -14.3551   18.0672 C   0  0  0  0  0  0  0  0  0  0  0  0
    8.7528  -15.0472   19.2259 C   0  0  0  0  0  0  0  0  0  0  0  0
    8.3273  -14.6039   20.4615 C   0  0  0  0  0  0  0  0  0  0  0  0
    8.6340  -15.3378   21.7211 C   0  0  0  0  0  0  0  0  0  0  0  0
    8.8213  -16.7995   21.4152 C   0  0  2  0  0  0  0  0  0  0  0  0
    7.5650  -17.4977   21.2893 N   0  0  0  0  0  0  0  0  0  0  0  0
    9.6413  -17.4019   22.5428 C   0  0  0  0  0  0  0  0  0  0  0  0
    9.0738  -17.8085   23.5795 O   0  0  0  0  0  0  0  0  0  0  0  0
    7.5907  -13.4316   20.4920 C   0  0  0  0  0  0  0  0  0  0  0  0
    7.2961  -12.7382   19.3342 C   0  0  0  0  0  0  0  0  0  0  0  0
   11.0430  -17.5013   22.4165 N   0  0  0  0  0  0  0  0  0  0  0  0
   11.9306  -17.9905   23.4104 C   0  0  1  0  0  0  0  0  0  0  0  0
   13.3158  -18.3712   22.9443 C   0  0  0  0  0  0  0  0  0  0  0  0
   13.3570  -19.3735   21.8445 C   0  0  0  0  0  0  0  0  0  0  0  0
   14.7492  -19.6240   21.3533 C   0  0  0  0  0  0  0  0  0  0  0  0
   15.2086  -20.7798   21.2182 O   0  0  0  0  0  0  0  0  0  0  0  0
   11.8910  -17.2530   24.6836 C   0  0  0  0  0  0  0  0  0  0  0  0
   12.3429  -16.0701   24.7932 O   0  0  0  0  0  0  0  0  0  0  0  0
   15.5802  -18.5671   21.0298 O   0  0  0  0  0  0  0  0  0  0  0  0
   11.3517  -17.7911   25.8818 N   0  0  0  0  0  0  0  0  0  0  0  0
   11.1738  -16.9813   27.0821 C   0  0  1  0  0  0  0  0  0  0  0  0
    9.8553  -16.2695   26.9389 C   0  0  0  0  0  0  0  0  0  0  0  0
    9.7607  -14.9454   27.6062 C   0  0  0  0  0  0  0  0  0  0  0  0
    8.3682  -14.3252   27.3912 C   0  0  0  0  0  0  0  0  0  0  0  0
    8.3371  -13.0471   28.1909 C   0  0  0  0  0  0  0  0  0  0  0  0
    7.0039  -12.4626   28.0016 N   0  0  0  0  0  0  0  0  0  0  0  0
   11.1340  -17.8502   28.2670 C   0  0  0  0  0  0  0  0  0  0  0  0
   10.9674  -19.0892   28.1317 O   0  0  0  0  0  0  0  0  0  0  0  0
   11.2842  -17.2670   29.5233 O   0  0  0  0  0  0  0  0  0  0  0  0
  2  1  1  0
  3  2  2  0
  4  3  1  0
  5 11  1  0
  5  4  2  0
  6  5  1  0
  7  6  1  0
  7  8  1  1
  9  7  1  0
  9 10  2  0
 11 12  2  0
 12  2  1  0
 13  9  1  0
 14 13  1  0
 14 15  1  6
 15 16  1  0
 17 21  1  0
 17 16  1  0
 18 17  2  0
 19 14  1  0
 20 19  2  0
 22 19  1  0
 23 22  1  0
 23 24  1  6
 25 24  1  0
 26 27  1  0
 26 25  1  0
 28 27  1  0
 29 23  1  0
 29 31  1  0
 30 29  2  0
M  END
$$$$
