YEK.pdb
     RDKit          3D

 31 31  0  0  1  0  0  0  0  0999 V2000
    7.1819  -12.0888   17.3202 O   0  0  0  0  0  0  0  0  0  0  0  0
    7.4625  -12.8078   18.4764 C   0  0  0  0  0  0  0  0  0  0  0  0
    8.6337  -13.5393   18.6114 C   0  0  0  0  0  0  0  0  0  0  0  0
    8.9028  -14.2502   19.7647 C   0  0  0  0  0  0  0  0  0  0  0  0
    8.0235  -14.2644   20.8281 C   0  0  0  0  0  0  0  0  0  0  0  0
    8.2969  -15.0260   22.0789 C   0  0  0  0  0  0  0  0  0  0  0  0
    8.1127  -16.4970   21.8190 C   0  0  2  0  0  0  0  0  0  0  0  0
    6.9043  -17.0113   22.4165 N   0  0  0  0  0  0  0  0  0  0  0  0
    9.3226  -17.2175   22.3880 C   0  0  0  0  0  0  0  0  0  0  0  0
    9.3272  -17.5822   23.5834 O   0  0  0  0  0  0  0  0  0  0  0  0
    6.8553  -13.5334   20.6908 C   0  0  0  0  0  0  0  0  0  0  0  0
    6.5846  -12.8219   19.5382 C   0  0  0  0  0  0  0  0  0  0  0  0
   10.4390  -17.4738   21.5643 N   0  0  0  0  0  0  0  0  0  0  0  0
   11.6921  -17.9769   22.0022 C   0  0  1  0  0  0  0  0  0  0  0  0
   12.7162  -18.2548   20.9276 C   0  0  0  0  0  0  0  0  0  0  0  0
   13.9992  -18.8318   21.4142 C   0  0  0  0  0  0  0  0  0  0  0  0
   14.9619  -19.1021   20.2996 C   0  0  0  0  0  0  0  0  0  0  0  0
   16.1619  -19.3858   20.5117 O   0  0  0  0  0  0  0  0  0  0  0  0
   12.2272  -17.3235   23.2077 C   0  0  0  0  0  0  0  0  0  0  0  0
   12.7627  -16.1714   23.1699 O   0  0  0  0  0  0  0  0  0  0  0  0
   14.5448  -19.0448   18.9824 O   0  0  0  0  0  0  0  0  0  0  0  0
   12.1912  -17.9146   24.4981 N   0  0  0  0  0  0  0  0  0  0  0  0
   12.8260  -17.2895   25.6534 C   0  0  1  0  0  0  0  0  0  0  0  0
   11.7789  -17.1944   26.7304 C   0  0  0  0  0  0  0  0  0  0  0  0
   12.2541  -16.7079   28.0515 C   0  0  0  0  0  0  0  0  0  0  0  0
   11.0922  -16.6466   29.0596 C   0  0  0  0  0  0  0  0  0  0  0  0
   11.6659  -16.1107   30.3471 C   0  0  0  0  0  0  0  0  0  0  0  0
   10.5653  -16.0753   31.3177 N   0  0  0  0  0  0  0  0  0  0  0  0
   13.9373  -18.1281   26.1247 C   0  0  0  0  0  0  0  0  0  0  0  0
   14.8775  -17.6132   26.7821 O   0  0  0  0  0  0  0  0  0  0  0  0
   13.9161  -19.4884   25.8248 O   0  0  0  0  0  0  0  0  0  0  0  0
  2  1  1  0
  3  2  2  0
  4  3  1  0
  5 11  1  0
  5  4  2  0
  6  5  1  0
  7  6  1  0
  7  8  1  1
  9  7  1  0
  9 10  2  0
 11 12  2  0
 12  2  1  0
 13  9  1  0
 14 13  1  0
 14 15  1  6
 15 16  1  0
 17 21  1  0
 17 16  1  0
 18 17  2  0
 19 14  1  0
 20 19  2  0
 22 19  1  0
 23 22  1  0
 23 24  1  1
 25 24  1  0
 26 27  1  0
 26 25  1  0
 28 27  1  0
 29 23  1  0
 29 31  1  0
 30 29  2  0
M  END
$$$$
