YEK.pdb
     RDKit          3D

 31 31  0  0  1  0  0  0  0  0999 V2000
    5.4590   -9.9791   26.2853 O   0  0  0  0  0  0  0  0  0  0  0  0
    6.1815  -11.1634   26.1970 C   0  0  0  0  0  0  0  0  0  0  0  0
    6.9237  -11.4798   25.0681 C   0  0  0  0  0  0  0  0  0  0  0  0
    7.6382  -12.6593   24.9908 C   0  0  0  0  0  0  0  0  0  0  0  0
    7.6458  -13.5705   26.0270 C   0  0  0  0  0  0  0  0  0  0  0  0
    8.4098  -14.8477   25.9606 C   0  0  0  0  0  0  0  0  0  0  0  0
    7.7153  -15.7975   25.0221 C   0  0  2  0  0  0  0  0  0  0  0  0
    6.4468  -16.2494   25.5404 N   0  0  0  0  0  0  0  0  0  0  0  0
    8.6400  -16.9822   24.8024 C   0  0  0  0  0  0  0  0  0  0  0  0
    8.5265  -18.0035   25.5138 O   0  0  0  0  0  0  0  0  0  0  0  0
    6.9043  -13.2523   27.1526 C   0  0  0  0  0  0  0  0  0  0  0  0
    6.1891  -12.0732   27.2317 C   0  0  0  0  0  0  0  0  0  0  0  0
    9.6254  -16.9264   23.7942 N   0  0  0  0  0  0  0  0  0  0  0  0
   10.7023  -17.8382   23.6386 C   0  0  1  0  0  0  0  0  0  0  0  0
   11.4074  -17.8222   22.3031 C   0  0  0  0  0  0  0  0  0  0  0  0
   12.8722  -17.5654   22.3673 C   0  0  0  0  0  0  0  0  0  0  0  0
   13.5113  -17.5677   21.0132 C   0  0  0  0  0  0  0  0  0  0  0  0
   13.9646  -16.5253   20.4902 O   0  0  0  0  0  0  0  0  0  0  0  0
   11.5953  -17.9363   24.8045 C   0  0  0  0  0  0  0  0  0  0  0  0
   12.0658  -16.9072   25.3832 O   0  0  0  0  0  0  0  0  0  0  0  0
   13.6203  -18.7415   20.2903 O   0  0  0  0  0  0  0  0  0  0  0  0
   12.0017  -19.1711   25.3757 N   0  0  0  0  0  0  0  0  0  0  0  0
   12.7596  -19.2353   26.6206 C   0  0  1  0  0  0  0  0  0  0  0  0
   12.1775  -20.3628   27.4302 C   0  0  0  0  0  0  0  0  0  0  0  0
   12.8236  -20.6146   28.7443 C   0  0  0  0  0  0  0  0  0  0  0  0
   12.0552  -21.6913   29.5318 C   0  0  0  0  0  0  0  0  0  0  0  0
   12.8037  -21.8966   30.8248 C   0  0  0  0  0  0  0  0  0  0  0  0
   12.0567  -22.9018   31.5904 N   0  0  0  0  0  0  0  0  0  0  0  0
   14.1716  -19.5211   26.3291 C   0  0  0  0  0  0  0  0  0  0  0  0
   15.0479  -19.3171   27.2076 O   0  0  0  0  0  0  0  0  0  0  0  0
   14.5024  -20.0167   25.0698 O   0  0  0  0  0  0  0  0  0  0  0  0
  2  1  1  0
  3  2  2  0
  4  3  1  0
  5 11  1  0
  5  4  2  0
  6  5  1  0
  7  6  1  0
  7  8  1  1
  9  7  1  0
  9 10  2  0
 11 12  2  0
 12  2  1  0
 13  9  1  0
 14 13  1  0
 14 15  1  6
 15 16  1  0
 17 21  1  0
 17 16  1  0
 18 17  2  0
 19 14  1  0
 20 19  2  0
 22 19  1  0
 23 22  1  0
 23 24  1  1
 25 24  1  0
 26 27  1  0
 26 25  1  0
 28 27  1  0
 29 23  1  0
 29 31  1  0
 30 29  2  0
M  END
$$$$
