YEK.pdb
     RDKit          3D

 31 31  0  0  1  0  0  0  0  0999 V2000
    5.2010  -10.3941   27.1527 O   0  0  0  0  0  0  0  0  0  0  0  0
    5.9809  -11.4620   26.7241 C   0  0  0  0  0  0  0  0  0  0  0  0
    6.7849  -11.3690   25.5971 C   0  0  0  0  0  0  0  0  0  0  0  0
    7.5561  -12.4362   25.1800 C   0  0  0  0  0  0  0  0  0  0  0  0
    7.5614  -13.6359   25.8618 C   0  0  0  0  0  0  0  0  0  0  0  0
    8.3862  -14.7974   25.4259 C   0  0  0  0  0  0  0  0  0  0  0  0
    7.6053  -15.6227   24.4389 C   0  0  2  0  0  0  0  0  0  0  0  0
    6.4822  -16.2904   25.0510 N   0  0  0  0  0  0  0  0  0  0  0  0
    8.5571  -16.6450   23.8424 C   0  0  0  0  0  0  0  0  0  0  0  0
    8.6445  -17.7854   24.3462 O   0  0  0  0  0  0  0  0  0  0  0  0
    6.7582  -13.7261   26.9864 C   0  0  0  0  0  0  0  0  0  0  0  0
    5.9862  -12.6598   27.4050 C   0  0  0  0  0  0  0  0  0  0  0  0
    9.3404  -16.3040   22.7196 N   0  0  0  0  0  0  0  0  0  0  0  0
   10.3804  -17.0953   22.1653 C   0  0  1  0  0  0  0  0  0  0  0  0
   10.6648  -16.8957   20.6955 C   0  0  0  0  0  0  0  0  0  0  0  0
    9.4639  -16.8944   19.8160 C   0  0  0  0  0  0  0  0  0  0  0  0
    9.8115  -16.6715   18.3767 C   0  0  0  0  0  0  0  0  0  0  0  0
   10.0700  -15.5343   17.9236 O   0  0  0  0  0  0  0  0  0  0  0  0
   11.5778  -17.2143   23.0129 C   0  0  0  0  0  0  0  0  0  0  0  0
   12.2043  -16.1957   23.4434 O   0  0  0  0  0  0  0  0  0  0  0  0
    9.8573  -17.7341   17.4929 O   0  0  0  0  0  0  0  0  0  0  0  0
   12.1280  -18.4591   23.4177 N   0  0  0  0  0  0  0  0  0  0  0  0
   13.2219  -18.5454   24.3791 C   0  0  1  0  0  0  0  0  0  0  0  0
   12.9860  -19.7840   25.2011 C   0  0  0  0  0  0  0  0  0  0  0  0
   14.0354  -20.1032   26.2033 C   0  0  0  0  0  0  0  0  0  0  0  0
   13.6235  -21.3172   27.0557 C   0  0  0  0  0  0  0  0  0  0  0  0
   14.6540  -21.4462   28.1490 C   0  0  0  0  0  0  0  0  0  0  0  0
   14.1760  -22.4947   29.0585 N   0  0  0  0  0  0  0  0  0  0  0  0
   14.5017  -18.6678   23.6667 C   0  0  0  0  0  0  0  0  0  0  0  0
   14.5292  -19.1409   22.5019 O   0  0  0  0  0  0  0  0  0  0  0  0
   15.6635  -18.2501   24.3123 O   0  0  0  0  0  0  0  0  0  0  0  0
  2  1  1  0
  3  2  2  0
  4  3  1  0
  5 11  1  0
  5  4  2  0
  6  5  1  0
  7  6  1  0
  7  8  1  1
  9  7  1  0
  9 10  2  0
 11 12  2  0
 12  2  1  0
 13  9  1  0
 14 13  1  0
 14 15  1  6
 15 16  1  0
 17 21  1  0
 17 16  1  0
 18 17  2  0
 19 14  1  0
 20 19  2  0
 22 19  1  0
 23 22  1  0
 23 24  1  1
 25 24  1  0
 26 27  1  0
 26 25  1  0
 28 27  1  0
 29 23  1  0
 29 31  1  0
 30 29  2  0
M  END
$$$$
