YEK.pdb
     RDKit          3D

 31 31  0  0  1  0  0  0  0  0999 V2000
    4.7697  -10.2759   26.6577 O   0  0  0  0  0  0  0  0  0  0  0  0
    5.6153  -11.3316   26.3367 C   0  0  0  0  0  0  0  0  0  0  0  0
    6.1879  -11.4475   25.0782 C   0  0  0  0  0  0  0  0  0  0  0  0
    7.0269  -12.5005   24.7696 C   0  0  0  0  0  0  0  0  0  0  0  0
    7.3313  -13.4786   25.6942 C   0  0  0  0  0  0  0  0  0  0  0  0
    8.2332  -14.6215   25.3786 C   0  0  0  0  0  0  0  0  0  0  0  0
    7.4995  -15.6146   24.5181 C   0  0  2  0  0  0  0  0  0  0  0  0
    6.4299  -16.2710   25.2302 N   0  0  0  0  0  0  0  0  0  0  0  0
    8.5116  -16.6401   24.0378 C   0  0  0  0  0  0  0  0  0  0  0  0
    8.6712  -17.7049   24.6725 O   0  0  0  0  0  0  0  0  0  0  0  0
    6.7585  -13.3605   26.9496 C   0  0  0  0  0  0  0  0  0  0  0  0
    5.9193  -12.3081   27.2599 C   0  0  0  0  0  0  0  0  0  0  0  0
    9.2693  -16.3877   22.8747 N   0  0  0  0  0  0  0  0  0  0  0  0
   10.4259  -17.1039   22.4691 C   0  0  1  0  0  0  0  0  0  0  0  0
   10.9024  -16.8644   21.0562 C   0  0  0  0  0  0  0  0  0  0  0  0
   12.0618  -17.6964   20.6328 C   0  0  0  0  0  0  0  0  0  0  0  0
   12.4003  -17.5087   19.1863 C   0  0  0  0  0  0  0  0  0  0  0  0
   13.4834  -17.0028   18.8172 O   0  0  0  0  0  0  0  0  0  0  0  0
   11.4962  -17.1609   23.4779 C   0  0  0  0  0  0  0  0  0  0  0  0
   11.9800  -16.1125   24.0091 O   0  0  0  0  0  0  0  0  0  0  0  0
   11.5104  -17.8958   18.2011 O   0  0  0  0  0  0  0  0  0  0  0  0
   12.0719  -18.3744   23.9386 N   0  0  0  0  0  0  0  0  0  0  0  0
   12.9873  -18.4143   25.0738 C   0  0  1  0  0  0  0  0  0  0  0  0
   12.4614  -19.4562   26.0242 C   0  0  0  0  0  0  0  0  0  0  0  0
   13.2873  -19.7016   27.2347 C   0  0  0  0  0  0  0  0  0  0  0  0
   12.6880  -20.8387   28.0819 C   0  0  0  0  0  0  0  0  0  0  0  0
   13.6014  -21.0205   29.2679 C   0  0  0  0  0  0  0  0  0  0  0  0
   13.0444  -22.1198   30.0656 N   0  0  0  0  0  0  0  0  0  0  0  0
   14.3294  -18.8021   24.6172 C   0  0  0  0  0  0  0  0  0  0  0  0
   14.4601  -19.5448   23.6108 O   0  0  0  0  0  0  0  0  0  0  0  0
   15.4335  -18.3288   25.3229 O   0  0  0  0  0  0  0  0  0  0  0  0
  2  1  1  0
  3  2  2  0
  4  3  1  0
  5 11  1  0
  5  4  2  0
  6  5  1  0
  7  6  1  0
  7  8  1  1
  9  7  1  0
  9 10  2  0
 11 12  2  0
 12  2  1  0
 13  9  1  0
 14 13  1  0
 14 15  1  6
 15 16  1  0
 17 21  1  0
 17 16  1  0
 18 17  2  0
 19 14  1  0
 20 19  2  0
 22 19  1  0
 23 22  1  0
 23 24  1  1
 25 24  1  0
 26 27  1  0
 26 25  1  0
 28 27  1  0
 29 23  1  0
 29 31  1  0
 30 29  2  0
M  END
$$$$
