NLH.pdb
     RDKit          3D

 27 27  0  0  1  0  0  0  0  0999 V2000
   46.0196  -11.6895   -5.8895 N   0  0  0  0  0  0  0  0  0  0  0  0
   45.4869  -12.3609   -7.0157 C   0  0  0  0  0  0  0  0  0  0  0  0
   46.1840  -13.2449   -7.5448 O   0  0  0  0  0  0  0  0  0  0  0  0
   44.1578  -11.9857   -7.4956 C   0  0  0  0  0  0  0  0  0  0  0  0
   43.4847  -10.8517   -6.7803 C   0  0  2  0  0  0  0  0  0  0  0  0
   43.1962  -11.3717   -5.4260 N   0  0  0  0  0  0  0  0  0  0  0  0
   42.2243  -10.5034   -7.4701 C   0  0  0  0  0  0  0  0  0  0  0  0
   42.1899  -10.0046   -8.5998 O   0  0  0  0  0  0  0  0  0  0  0  0
   36.1922  -12.1071   -7.2567 C   0  0  0  0  0  0  0  0  0  0  0  0
   37.3553  -11.3618   -7.8559 C   0  0  2  0  0  0  0  0  0  0  0  0
   37.6494  -11.8064   -9.2689 C   0  0  0  0  0  0  0  0  0  0  0  0
   38.5529  -11.2679   -6.9902 C   0  0  0  0  0  0  0  0  0  0  0  0
   39.6859  -10.4327   -7.4481 C   0  0  2  0  0  0  0  0  0  0  0  0
   40.9446  -10.7427   -6.8246 N   0  0  0  0  0  0  0  0  0  0  0  0
   39.4107   -8.9773   -7.4913 C   0  0  0  0  0  0  0  0  0  0  0  0
   39.0673   -8.4054   -6.4345 O   0  0  0  0  0  0  0  0  0  0  0  0
   39.5279   -8.2487   -8.6799 N   0  0  0  0  0  0  0  0  0  0  0  0
   39.1807   -6.8284   -8.6670 C   0  0  1  0  0  0  0  0  0  0  0  0
   40.4480   -6.0296   -8.4072 C   0  0  0  0  0  0  0  0  0  0  0  0
   40.1542   -4.5926   -8.3520 C   0  0  0  0  0  0  0  0  0  0  0  0
   38.9374   -4.0447   -8.0167 C   0  0  0  0  0  0  0  0  0  0  0  0
   39.0484   -2.7169   -8.0749 N   0  0  0  0  0  0  0  0  0  0  0  0
   40.3173   -2.4281   -8.4419 C   0  0  0  0  0  0  0  0  0  0  0  0
   40.9750   -3.5858   -8.6059 N   0  0  0  0  0  0  0  0  0  0  0  0
   38.5978   -6.5009   -9.9847 C   0  0  0  0  0  0  0  0  0  0  0  0
   38.5837   -7.3559  -10.8918 O   0  0  0  0  0  0  0  0  0  0  0  0
   38.0673   -5.2498  -10.2154 O   0  0  0  0  0  0  0  0  0  0  0  0
  1  2  1  0
  2  3  2  0
  4  2  1  0
  5  7  1  0
  5  4  1  0
  5  6  1  1
  7  8  2  0
 10  9  1  1
 10 11  1  0
 13 12  1  1
 12 10  1  0
 14 13  1  0
 14  7  1  0
 15 16  2  0
 15 13  1  0
 17 15  1  0
 18 25  1  0
 18 17  1  0
 18 19  1  6
 20 19  1  0
 21 20  2  0
 22 23  1  0
 22 21  1  0
 23 24  2  0
 24 20  1  0
 25 27  1  0
 26 25  2  0
M  END
$$$$
