NLH.pdb
     RDKit          3D

 27 27  0  0  1  0  0  0  0  0999 V2000
   14.5474  -12.6212    5.0009 N   0  0  0  0  0  0  0  0  0  0  0  0
   14.8830  -13.8862    5.5396 C   0  0  0  0  0  0  0  0  0  0  0  0
   13.9573  -14.6917    5.7436 O   0  0  0  0  0  0  0  0  0  0  0  0
   16.2863  -14.1795    5.8264 C   0  0  0  0  0  0  0  0  0  0  0  0
   17.2641  -13.0675    5.5854 C   0  0  2  0  0  0  0  0  0  0  0  0
   17.4967  -13.0732    4.1246 N   0  0  0  0  0  0  0  0  0  0  0  0
   18.5266  -13.3477    6.3021 C   0  0  0  0  0  0  0  0  0  0  0  0
   19.3018  -14.2515    5.9731 O   0  0  0  0  0  0  0  0  0  0  0  0
   22.3993  -11.0150    6.8487 C   0  0  0  0  0  0  0  0  0  0  0  0
   21.2947  -10.4994    7.7326 C   0  0  2  0  0  0  0  0  0  0  0  0
   21.6364   -9.1647    8.3510 C   0  0  0  0  0  0  0  0  0  0  0  0
   20.7455  -11.4863    8.6901 C   0  0  0  0  0  0  0  0  0  0  0  0
   20.1534  -12.7316    8.1521 C   0  0  2  0  0  0  0  0  0  0  0  0
   18.9107  -12.5463    7.4518 N   0  0  0  0  0  0  0  0  0  0  0  0
   20.1104  -13.8648    9.1060 C   0  0  0  0  0  0  0  0  0  0  0  0
   19.0342  -14.1072    9.6933 O   0  0  0  0  0  0  0  0  0  0  0  0
   21.2401  -14.6524    9.3531 N   0  0  0  0  0  0  0  0  0  0  0  0
   21.1373  -15.7363   10.3289 C   0  0  1  0  0  0  0  0  0  0  0  0
   22.0259  -16.8803    9.8669 C   0  0  0  0  0  0  0  0  0  0  0  0
   21.4160  -17.5871    8.7342 C   0  0  0  0  0  0  0  0  0  0  0  0
   20.0746  -17.8629    8.6015 C   0  0  0  0  0  0  0  0  0  0  0  0
   19.8951  -18.5141    7.4516 N   0  0  0  0  0  0  0  0  0  0  0  0
   21.1056  -18.6488    6.8644 C   0  0  0  0  0  0  0  0  0  0  0  0
   22.0194  -18.0767    7.6629 N   0  0  0  0  0  0  0  0  0  0  0  0
   21.5800  -15.2034   11.6341 C   0  0  0  0  0  0  0  0  0  0  0  0
   22.2876  -14.1783   11.6831 O   0  0  0  0  0  0  0  0  0  0  0  0
   21.2118  -15.8371   12.8015 O   0  0  0  0  0  0  0  0  0  0  0  0
  1  2  1  0
  2  3  2  0
  4  2  1  0
  5  7  1  0
  5  4  1  0
  5  6  1  6
  7  8  2  0
 10  9  1  1
 10 11  1  0
 13 12  1  1
 12 10  1  0
 14 13  1  0
 14  7  1  0
 15 16  2  0
 15 13  1  0
 17 15  1  0
 18 25  1  0
 18 17  1  0
 18 19  1  6
 20 19  1  0
 21 20  2  0
 22 23  1  0
 22 21  1  0
 23 24  2  0
 24 20  1  0
 25 27  1  0
 26 25  2  0
M  END
$$$$
