NLH.pdb
     RDKit          3D

 27 27  0  0  1  0  0  0  0  0999 V2000
   18.7665  -13.3886  -21.5182 N   0  0  0  0  0  0  0  0  0  0  0  0
   18.8973  -13.9571  -20.2287 C   0  0  0  0  0  0  0  0  0  0  0  0
   18.5381  -15.1386  -20.0786 O   0  0  0  0  0  0  0  0  0  0  0  0
   19.4424  -13.1357  -19.1491 C   0  0  0  0  0  0  0  0  0  0  0  0
   19.8517  -11.7392  -19.5135 C   0  0  2  0  0  0  0  0  0  0  0  0
   21.0629  -11.9012  -20.3469 N   0  0  0  0  0  0  0  0  0  0  0  0
   20.1759  -10.9774  -18.2885 C   0  0  0  0  0  0  0  0  0  0  0  0
   19.3459  -10.7351  -17.4063 O   0  0  0  0  0  0  0  0  0  0  0  0
   25.0247   -9.8939  -14.5967 C   0  0  0  0  0  0  0  0  0  0  0  0
   23.6548   -9.4859  -15.0700 C   0  0  2  0  0  0  0  0  0  0  0  0
   22.6507   -9.4477  -13.9426 C   0  0  0  0  0  0  0  0  0  0  0  0
   23.1755  -10.1877  -16.2826 C   0  0  0  0  0  0  0  0  0  0  0  0
   21.9021   -9.7441  -16.8929 C   0  0  2  0  0  0  0  0  0  0  0  0
   21.5215  -10.4728  -18.0732 N   0  0  0  0  0  0  0  0  0  0  0  0
   21.7659   -8.2775  -17.0558 C   0  0  0  0  0  0  0  0  0  0  0  0
   22.5337   -7.6937  -17.8505 O   0  0  0  0  0  0  0  0  0  0  0  0
   20.8056   -7.5514  -16.3431 N   0  0  0  0  0  0  0  0  0  0  0  0
   20.7366   -6.1038  -16.5377 C   0  0  1  0  0  0  0  0  0  0  0  0
   19.4848   -5.7895  -17.3414 C   0  0  0  0  0  0  0  0  0  0  0  0
   19.7167   -6.0138  -18.7733 C   0  0  0  0  0  0  0  0  0  0  0  0
   19.4666   -7.1900  -19.4420 C   0  0  0  0  0  0  0  0  0  0  0  0
   19.7985   -7.0197  -20.7224 N   0  0  0  0  0  0  0  0  0  0  0  0
   20.2524   -5.7537  -20.8625 C   0  0  0  0  0  0  0  0  0  0  0  0
   20.1943   -5.1575  -19.6622 N   0  0  0  0  0  0  0  0  0  0  0  0
   20.6900   -5.4769  -15.2004 C   0  0  0  0  0  0  0  0  0  0  0  0
   20.2403   -6.1130  -14.2273 O   0  0  0  0  0  0  0  0  0  0  0  0
   21.1438   -4.1874  -15.0242 O   0  0  0  0  0  0  0  0  0  0  0  0
  1  2  1  0
  2  3  2  0
  4  2  1  0
  5  7  1  0
  5  4  1  0
  5  6  1  6
  7  8  2  0
 10  9  1  1
 10 11  1  0
 13 12  1  6
 12 10  1  0
 14 13  1  0
 14  7  1  0
 15 16  2  0
 15 13  1  0
 17 15  1  0
 18 25  1  0
 18 17  1  0
 18 19  1  6
 20 19  1  0
 21 20  2  0
 22 23  1  0
 22 21  1  0
 23 24  2  0
 24 20  1  0
 25 27  1  0
 26 25  2  0
M  END
$$$$
