NLH.pdb
     RDKit          3D

 27 27  0  0  1  0  0  0  0  0999 V2000
   25.9191   -4.6579  -18.1478 N   0  0  0  0  0  0  0  0  0  0  0  0
   25.0952   -5.3062  -19.0984 C   0  0  0  0  0  0  0  0  0  0  0  0
   24.7192   -4.6460  -20.0834 O   0  0  0  0  0  0  0  0  0  0  0  0
   24.7312   -6.7048  -18.8773 C   0  0  0  0  0  0  0  0  0  0  0  0
   25.8386   -7.7101  -18.9949 C   0  0  2  0  0  0  0  0  0  0  0  0
   26.1186   -7.8021  -20.4444 N   0  0  0  0  0  0  0  0  0  0  0  0
   25.3821   -9.0192  -18.4814 C   0  0  0  0  0  0  0  0  0  0  0  0
   24.6203   -9.7611  -19.1101 O   0  0  0  0  0  0  0  0  0  0  0  0
   27.6867  -12.5682  -17.6795 C   0  0  0  0  0  0  0  0  0  0  0  0
   27.7634  -11.7416  -16.4233 C   0  0  2  0  0  0  0  0  0  0  0  0
   28.7934  -12.2721  -15.4546 C   0  0  0  0  0  0  0  0  0  0  0  0
   26.4578  -11.4220  -15.8022 C   0  0  0  0  0  0  0  0  0  0  0  0
   25.4275  -10.7618  -16.6349 C   0  0  2  0  0  0  0  0  0  0  0  0
   25.8267   -9.4926  -17.1815 N   0  0  0  0  0  0  0  0  0  0  0  0
   24.0711  -10.7281  -16.0388 C   0  0  0  0  0  0  0  0  0  0  0  0
   23.5237  -11.8125  -15.7451 O   0  0  0  0  0  0  0  0  0  0  0  0
   23.4077   -9.5187  -15.8056 N   0  0  0  0  0  0  0  0  0  0  0  0
   22.0598   -9.5579  -15.2403 C   0  0  1  0  0  0  0  0  0  0  0  0
   22.0088   -8.5995  -14.0611 C   0  0  0  0  0  0  0  0  0  0  0  0
   20.6935   -8.6448  -13.4113 C   0  0  0  0  0  0  0  0  0  0  0  0
   19.6982   -9.5503  -13.6988 C   0  0  0  0  0  0  0  0  0  0  0  0
   18.6537   -9.2843  -12.9134 N   0  0  0  0  0  0  0  0  0  0  0  0
   18.9828   -8.2255  -12.1395 C   0  0  0  0  0  0  0  0  0  0  0  0
   20.2307   -7.8507  -12.4589 N   0  0  0  0  0  0  0  0  0  0  0  0
   21.1188   -9.1528  -16.3051 C   0  0  0  0  0  0  0  0  0  0  0  0
   21.4779   -8.3421  -17.1813 O   0  0  0  0  0  0  0  0  0  0  0  0
   19.8415   -9.6701  -16.3338 O   0  0  0  0  0  0  0  0  0  0  0  0
  1  2  1  0
  2  3  2  0
  4  2  1  0
  5  7  1  0
  5  4  1  0
  5  6  1  6
  7  8  2  0
 10  9  1  6
 10 11  1  0
 13 12  1  1
 12 10  1  0
 14 13  1  0
 14  7  1  0
 15 16  2  0
 15 13  1  0
 17 15  1  0
 18 25  1  0
 18 17  1  0
 18 19  1  1
 20 19  1  0
 21 20  2  0
 22 23  1  0
 22 21  1  0
 23 24  2  0
 24 20  1  0
 25 27  1  0
 26 25  2  0
M  END
$$$$
