NLH.pdb
     RDKit          3D

 27 27  0  0  1  0  0  0  0  0999 V2000
   10.7300  -12.9880    4.9286 N   0  0  0  0  0  0  0  0  0  0  0  0
   10.8979  -13.9980    5.9056 C   0  0  0  0  0  0  0  0  0  0  0  0
   10.1362  -13.9834    6.8889 O   0  0  0  0  0  0  0  0  0  0  0  0
   11.9473  -14.9973    5.7120 C   0  0  0  0  0  0  0  0  0  0  0  0
   12.8766  -14.7749    4.5554 C   0  0  2  0  0  0  0  0  0  0  0  0
   12.2963  -15.5581    3.4429 N   0  0  0  0  0  0  0  0  0  0  0  0
   14.2225  -15.2874    4.8897 C   0  0  0  0  0  0  0  0  0  0  0  0
   14.5232  -16.4838    4.8252 O   0  0  0  0  0  0  0  0  0  0  0  0
   18.3649  -14.2684    3.1392 C   0  0  0  0  0  0  0  0  0  0  0  0
   17.9321  -13.2353    4.1454 C   0  0  2  0  0  0  0  0  0  0  0  0
   18.8306  -12.0215    4.1378 C   0  0  0  0  0  0  0  0  0  0  0  0
   17.6387  -13.7615    5.4980 C   0  0  0  0  0  0  0  0  0  0  0  0
   16.6033  -14.8106    5.6334 C   0  0  2  0  0  0  0  0  0  0  0  0
   15.2692  -14.3750    5.3183 N   0  0  0  0  0  0  0  0  0  0  0  0
   16.6690  -15.5935    6.8899 C   0  0  0  0  0  0  0  0  0  0  0  0
   15.9178  -15.2671    7.8337 O   0  0  0  0  0  0  0  0  0  0  0  0
   17.5467  -16.6740    7.0299 N   0  0  0  0  0  0  0  0  0  0  0  0
   17.5317  -17.4297    8.2815 C   0  0  1  0  0  0  0  0  0  0  0  0
   17.8619  -18.8802    7.9673 C   0  0  0  0  0  0  0  0  0  0  0  0
   16.7240  -19.5435    7.3195 C   0  0  0  0  0  0  0  0  0  0  0  0
   15.3995  -19.3014    7.6025 C   0  0  0  0  0  0  0  0  0  0  0  0
   14.6565  -20.0860    6.8208 N   0  0  0  0  0  0  0  0  0  0  0  0
   15.4986  -20.8146    6.0537 C   0  0  0  0  0  0  0  0  0  0  0  0
   16.7547  -20.4686    6.3735 N   0  0  0  0  0  0  0  0  0  0  0  0
   18.5424  -16.8286    9.1763 C   0  0  0  0  0  0  0  0  0  0  0  0
   19.2560  -15.8899    8.7717 O   0  0  0  0  0  0  0  0  0  0  0  0
   18.6994  -17.3028   10.4609 O   0  0  0  0  0  0  0  0  0  0  0  0
  1  2  1  0
  2  3  2  0
  4  2  1  0
  5  7  1  0
  5  4  1  0
  5  6  1  6
  7  8  2  0
 10  9  1  6
 10 11  1  0
 13 12  1  1
 12 10  1  0
 14 13  1  0
 14  7  1  0
 15 16  2  0
 15 13  1  0
 17 15  1  0
 18 25  1  0
 18 17  1  0
 18 19  1  6
 20 19  1  0
 21 20  2  0
 22 23  1  0
 22 21  1  0
 23 24  2  0
 24 20  1  0
 25 27  1  0
 26 25  2  0
M  END
$$$$
