NLH.pdb
     RDKit          3D

 27 27  0  0  1  0  0  0  0  0999 V2000
   20.6524  -15.9418  -19.8880 N   0  0  0  0  0  0  0  0  0  0  0  0
   20.0221  -14.7050  -19.6128 C   0  0  0  0  0  0  0  0  0  0  0  0
   19.1160  -14.3345  -20.3802 O   0  0  0  0  0  0  0  0  0  0  0  0
   20.4632  -13.9329  -18.4522 C   0  0  0  0  0  0  0  0  0  0  0  0
   21.6285  -14.4854  -17.6858 C   0  0  2  0  0  0  0  0  0  0  0  0
   21.0664  -15.5918  -16.8809 N   0  0  0  0  0  0  0  0  0  0  0  0
   22.1829  -13.4415  -16.7975 C   0  0  0  0  0  0  0  0  0  0  0  0
   21.5713  -12.9915  -15.8231 O   0  0  0  0  0  0  0  0  0  0  0  0
   27.7673  -12.4976  -15.4315 C   0  0  0  0  0  0  0  0  0  0  0  0
   26.2821  -12.3878  -15.2098 C   0  0  2  0  0  0  0  0  0  0  0  0
   25.6772  -13.6924  -14.7485 C   0  0  0  0  0  0  0  0  0  0  0  0
   25.5323  -11.7268  -16.3023 C   0  0  0  0  0  0  0  0  0  0  0  0
   24.0542  -11.8032  -16.2851 C   0  0  2  0  0  0  0  0  0  0  0  0
   23.5051  -12.8927  -17.0470 N   0  0  0  0  0  0  0  0  0  0  0  0
   23.3601  -10.5188  -16.5392 C   0  0  0  0  0  0  0  0  0  0  0  0
   23.2391  -10.1321  -17.7214 O   0  0  0  0  0  0  0  0  0  0  0  0
   22.8482   -9.7474  -15.4903 N   0  0  0  0  0  0  0  0  0  0  0  0
   22.1215   -8.5206  -15.8141 C   0  0  1  0  0  0  0  0  0  0  0  0
   20.8453   -8.9014  -16.5477 C   0  0  0  0  0  0  0  0  0  0  0  0
   20.0116   -7.7177  -16.7887 C   0  0  0  0  0  0  0  0  0  0  0  0
   20.4083   -6.4152  -16.5904 C   0  0  0  0  0  0  0  0  0  0  0  0
   19.3904   -5.6162  -16.9132 N   0  0  0  0  0  0  0  0  0  0  0  0
   18.3638   -6.4015  -17.3101 C   0  0  0  0  0  0  0  0  0  0  0  0
   18.7633   -7.6795  -17.2267 N   0  0  0  0  0  0  0  0  0  0  0  0
   21.8261   -7.8295  -14.5419 C   0  0  0  0  0  0  0  0  0  0  0  0
   21.8282   -8.4657  -13.4700 O   0  0  0  0  0  0  0  0  0  0  0  0
   21.5478   -6.4795  -14.5359 O   0  0  0  0  0  0  0  0  0  0  0  0
  1  2  1  0
  2  3  2  0
  4  2  1  0
  5  7  1  0
  5  4  1  0
  5  6  1  1
  7  8  2  0
 10  9  1  6
 10 11  1  0
 13 12  1  6
 12 10  1  0
 14 13  1  0
 14  7  1  0
 15 16  2  0
 15 13  1  0
 17 15  1  0
 18 25  1  0
 18 17  1  0
 18 19  1  1
 20 19  1  0
 21 20  2  0
 22 23  1  0
 22 21  1  0
 23 24  2  0
 24 20  1  0
 25 27  1  0
 26 25  2  0
M  END
$$$$
