NLH.pdb
     RDKit          3D

 27 27  0  0  1  0  0  0  0  0999 V2000
   16.3307  -16.0745  -16.8189 N   0  0  0  0  0  0  0  0  0  0  0  0
   16.4717  -14.6679  -16.8851 C   0  0  0  0  0  0  0  0  0  0  0  0
   15.7313  -14.0490  -17.6700 O   0  0  0  0  0  0  0  0  0  0  0  0
   17.4702  -14.0197  -16.0363 C   0  0  0  0  0  0  0  0  0  0  0  0
   18.4009  -13.0582  -16.7146 C   0  0  2  0  0  0  0  0  0  0  0  0
   19.2761  -13.9031  -17.5561 N   0  0  0  0  0  0  0  0  0  0  0  0
   19.2063  -12.3431  -15.7018 C   0  0  0  0  0  0  0  0  0  0  0  0
   20.3463  -12.6919  -15.3783 O   0  0  0  0  0  0  0  0  0  0  0  0
   22.1911   -7.8453  -15.0651 C   0  0  0  0  0  0  0  0  0  0  0  0
   21.5872   -8.8829  -14.1563 C   0  0  2  0  0  0  0  0  0  0  0  0
   22.5966   -9.4448  -13.1836 C   0  0  0  0  0  0  0  0  0  0  0  0
   20.7662   -9.9106  -14.8363 C   0  0  0  0  0  0  0  0  0  0  0  0
   19.4755  -10.2963  -14.2230 C   0  0  2  0  0  0  0  0  0  0  0  0
   18.6692  -11.1707  -15.0320 N   0  0  0  0  0  0  0  0  0  0  0  0
   18.7000   -9.1743  -13.6435 C   0  0  0  0  0  0  0  0  0  0  0  0
   18.0703   -8.4237  -14.4193 O   0  0  0  0  0  0  0  0  0  0  0  0
   18.6655   -8.9489  -12.2632 N   0  0  0  0  0  0  0  0  0  0  0  0
   17.5938   -8.1177  -11.7168 C   0  0  1  0  0  0  0  0  0  0  0  0
   17.4369   -8.4502  -10.2415 C   0  0  0  0  0  0  0  0  0  0  0  0
   16.3869   -7.6256   -9.6318 C   0  0  0  0  0  0  0  0  0  0  0  0
   15.6615   -6.6558  -10.2848 C   0  0  0  0  0  0  0  0  0  0  0  0
   14.8041   -6.1204   -9.4148 N   0  0  0  0  0  0  0  0  0  0  0  0
   14.9841   -6.7422   -8.2277 C   0  0  0  0  0  0  0  0  0  0  0  0
   15.9537   -7.6565   -8.3816 N   0  0  0  0  0  0  0  0  0  0  0  0
   17.9822   -6.7055  -11.9126 C   0  0  0  0  0  0  0  0  0  0  0  0
   19.1676   -6.3553  -11.7514 O   0  0  0  0  0  0  0  0  0  0  0  0
   17.0358   -5.7710  -12.2744 O   0  0  0  0  0  0  0  0  0  0  0  0
  1  2  1  0
  2  3  2  0
  4  2  1  0
  5  7  1  0
  5  4  1  0
  5  6  1  6
  7  8  2  0
 10  9  1  6
 10 11  1  0
 13 12  1  6
 12 10  1  0
 14 13  1  0
 14  7  1  0
 15 16  2  0
 15 13  1  0
 17 15  1  0
 18 25  1  0
 18 17  1  0
 18 19  1  1
 20 19  1  0
 21 20  2  0
 22 23  1  0
 22 21  1  0
 23 24  2  0
 24 20  1  0
 25 27  1  0
 26 25  2  0
M  END
$$$$
