IGW.pdb
     RDKit          3D

 27 28  0  0  1  0  0  0  0  0999 V2000
    1.7920  -20.1081   21.3635 C   0  0  0  0  0  0  0  0  0  0  0  0
    3.2961  -20.0508   21.4581 C   0  0  0  0  0  0  0  0  0  0  0  0
    3.8291  -18.6405   21.2258 C   0  0  2  0  0  0  0  0  0  0  0  0
    3.5565  -18.2469   19.8166 C   0  0  0  0  0  0  0  0  0  0  0  0
    5.2735  -18.6305   21.6351 C   0  0  2  0  0  0  0  0  0  0  0  0
    5.3093  -19.2857   22.9552 N   0  0  0  0  0  0  0  0  0  0  0  0
    5.8841  -17.3061   21.7400 C   0  0  0  0  0  0  0  0  0  0  0  0
    5.6201  -16.5832   22.7608 O   0  0  0  0  0  0  0  0  0  0  0  0
    6.7663  -16.7228   20.7978 N   0  0  0  0  0  0  0  0  0  0  0  0
    7.4261  -15.4500   21.0149 C   0  0  0  0  0  0  0  0  0  0  0  0
    8.6312  -15.5903   21.8694 C   0  0  0  0  0  0  0  0  0  0  0  0
    9.7949  -15.4689   21.4115 O   0  0  0  0  0  0  0  0  0  0  0  0
    8.4577  -15.8712   23.2495 N   0  0  0  0  0  0  0  0  0  0  0  0
    9.5253  -16.0236   24.1857 C   0  0  1  0  0  0  0  0  0  0  0  0
    9.4895  -14.9930   25.2908 C   0  0  0  0  0  0  0  0  0  0  0  0
    8.0852  -14.7063   25.6754 C   0  0  0  0  0  0  0  0  0  0  0  0
    7.0151  -15.5797   25.7527 C   0  0  0  0  0  0  0  0  0  0  0  0
    5.9124  -14.9101   26.1420 N   0  0  0  0  0  0  0  0  0  0  0  0
    6.2192  -13.6265   26.3237 C   0  0  0  0  0  0  0  0  0  0  0  0
    5.5354  -12.4908   26.7074 C   0  0  0  0  0  0  0  0  0  0  0  0
    6.1415  -11.2578   26.8092 C   0  0  0  0  0  0  0  0  0  0  0  0
    7.4667  -11.1076   26.5296 C   0  0  0  0  0  0  0  0  0  0  0  0
    8.1770  -12.2424   26.1400 C   0  0  0  0  0  0  0  0  0  0  0  0
    7.5784  -13.4729   26.0369 C   0  0  0  0  0  0  0  0  0  0  0  0
    9.5941  -17.4006   24.7065 C   0  0  0  0  0  0  0  0  0  0  0  0
   10.7506  -17.7917   25.3738 O   0  0  0  0  0  0  0  0  0  0  0  0
    8.6216  -18.1861   24.5413 O   0  0  0  0  0  0  0  0  0  0  0  0
  2  1  1  0
  3  2  1  0
  3  5  1  0
  3  4  1  6
  5  6  1  1
  7  5  1  0
  7  9  1  0
  8  7  2  0
 10  9  1  0
 11 10  1  0
 12 11  2  0
 13 11  1  0
 14 25  1  0
 14 13  1  0
 14 15  1  1
 16 15  1  0
 17 16  2  0
 18 19  1  0
 18 17  1  0
 19 24  2  0
 20 19  1  0
 20 21  2  0
 21 22  1  0
 22 23  2  0
 24 16  1  0
 24 23  1  0
 25 26  1  0
 27 25  2  0
M  END
$$$$
