IGW.pdb
     RDKit          3D

 27 28  0  0  1  0  0  0  0  0999 V2000
    8.1645  -12.1545   20.0674 C   0  0  0  0  0  0  0  0  0  0  0  0
    8.3959  -13.5815   20.4972 C   0  0  0  0  0  0  0  0  0  0  0  0
    8.1512  -14.5671   19.3589 C   0  0  2  0  0  0  0  0  0  0  0  0
    6.7402  -14.4386   18.9033 C   0  0  0  0  0  0  0  0  0  0  0  0
    8.5549  -15.9287   19.8458 C   0  0  2  0  0  0  0  0  0  0  0  0
    7.6032  -16.2556   20.9230 N   0  0  0  0  0  0  0  0  0  0  0  0
    9.9187  -16.0280   20.3638 C   0  0  0  0  0  0  0  0  0  0  0  0
   10.8985  -15.8724   19.5576 O   0  0  0  0  0  0  0  0  0  0  0  0
   10.2777  -16.2865   21.7093 N   0  0  0  0  0  0  0  0  0  0  0  0
   11.6484  -16.2561   22.1817 C   0  0  0  0  0  0  0  0  0  0  0  0
   11.7411  -16.5640   23.6305 C   0  0  0  0  0  0  0  0  0  0  0  0
   12.3792  -17.5552   24.0651 O   0  0  0  0  0  0  0  0  0  0  0  0
   11.0849  -15.7069   24.5515 N   0  0  0  0  0  0  0  0  0  0  0  0
    9.9287  -16.0653   25.3094 C   0  0  1  0  0  0  0  0  0  0  0  0
    8.6487  -15.9642   24.5120 C   0  0  0  0  0  0  0  0  0  0  0  0
    7.5740  -15.3710   25.3457 C   0  0  0  0  0  0  0  0  0  0  0  0
    6.4791  -15.9952   25.9162 C   0  0  0  0  0  0  0  0  0  0  0  0
    5.7472  -15.0912   26.5967 N   0  0  0  0  0  0  0  0  0  0  0  0
    6.3221  -13.8937   26.4942 C   0  0  0  0  0  0  0  0  0  0  0  0
    6.0503  -12.6231   26.9589 C   0  0  0  0  0  0  0  0  0  0  0  0
    6.8569  -11.5417   26.6793 C   0  0  0  0  0  0  0  0  0  0  0  0
    7.9775  -11.6869   25.9177 C   0  0  0  0  0  0  0  0  0  0  0  0
    8.2712  -12.9626   25.4377 C   0  0  0  0  0  0  0  0  0  0  0  0
    7.4713  -14.0430   25.7131 C   0  0  0  0  0  0  0  0  0  0  0  0
   10.0887  -17.3846   25.9464 C   0  0  0  0  0  0  0  0  0  0  0  0
    9.9923  -17.4590   27.3325 O   0  0  0  0  0  0  0  0  0  0  0  0
   10.3062  -18.4045   25.2375 O   0  0  0  0  0  0  0  0  0  0  0  0
  2  1  1  0
  3  2  1  0
  3  5  1  0
  3  4  1  1
  5  6  1  1
  7  5  1  0
  7  9  1  0
  8  7  2  0
 10  9  1  0
 11 10  1  0
 12 11  2  0
 13 11  1  0
 14 25  1  0
 14 13  1  0
 14 15  1  6
 16 15  1  0
 17 16  2  0
 18 19  1  0
 18 17  1  0
 19 24  2  0
 20 19  1  0
 20 21  2  0
 21 22  1  0
 22 23  2  0
 24 16  1  0
 24 23  1  0
 25 26  1  0
 27 25  2  0
M  END
$$$$
