IGW.pdb
     RDKit          3D

 27 28  0  0  1  0  0  0  0  0999 V2000
    7.8397  -12.2198   21.8940 C   0  0  0  0  0  0  0  0  0  0  0  0
    8.0743  -13.6789   22.1949 C   0  0  0  0  0  0  0  0  0  0  0  0
    7.8394  -14.5588   20.9711 C   0  0  2  0  0  0  0  0  0  0  0  0
    6.4058  -14.4710   20.5808 C   0  0  0  0  0  0  0  0  0  0  0  0
    8.3393  -15.9353   21.3019 C   0  0  2  0  0  0  0  0  0  0  0  0
    7.3982  -16.4608   22.3073 N   0  0  0  0  0  0  0  0  0  0  0  0
    9.6979  -15.9942   21.8392 C   0  0  0  0  0  0  0  0  0  0  0  0
   10.6098  -15.2845   21.2923 O   0  0  0  0  0  0  0  0  0  0  0  0
   10.1215  -16.7809   22.9382 N   0  0  0  0  0  0  0  0  0  0  0  0
   11.4815  -16.7696   23.4412 C   0  0  0  0  0  0  0  0  0  0  0  0
   11.5246  -16.6060   24.9155 C   0  0  0  0  0  0  0  0  0  0  0  0
   12.5923  -16.3628   25.5315 O   0  0  0  0  0  0  0  0  0  0  0  0
   10.3164  -16.7297   25.6493 N   0  0  0  0  0  0  0  0  0  0  0  0
   10.2200  -16.6433   27.0716 C   0  0  1  0  0  0  0  0  0  0  0  0
    8.7913  -16.5803   27.5610 C   0  0  0  0  0  0  0  0  0  0  0  0
    7.9423  -15.8779   26.5672 C   0  0  0  0  0  0  0  0  0  0  0  0
    7.0905  -16.4202   25.6216 C   0  0  0  0  0  0  0  0  0  0  0  0
    6.5077  -15.4301   24.9174 N   0  0  0  0  0  0  0  0  0  0  0  0
    6.9462  -14.2549   25.3664 C   0  0  0  0  0  0  0  0  0  0  0  0
    6.7201  -12.9298   25.0538 C   0  0  0  0  0  0  0  0  0  0  0  0
    7.3415  -11.8940   25.7165 C   0  0  0  0  0  0  0  0  0  0  0  0
    8.2214  -12.1417   26.7270 C   0  0  0  0  0  0  0  0  0  0  0  0
    8.4646  -13.4738   27.0595 C   0  0  0  0  0  0  0  0  0  0  0  0
    7.8485  -14.5092   26.4028 C   0  0  0  0  0  0  0  0  0  0  0  0
   10.9909  -17.7126   27.7307 C   0  0  0  0  0  0  0  0  0  0  0  0
   11.3823  -18.8059   26.9643 O   0  0  0  0  0  0  0  0  0  0  0  0
   11.2771  -17.6200   28.9552 O   0  0  0  0  0  0  0  0  0  0  0  0
  2  1  1  0
  3  2  1  0
  3  5  1  0
  3  4  1  1
  5  6  1  1
  7  5  1  0
  7  9  1  0
  8  7  2  0
 10  9  1  0
 11 10  1  0
 12 11  2  0
 13 11  1  0
 14 25  1  0
 14 13  1  0
 14 15  1  6
 16 15  1  0
 17 16  2  0
 18 19  1  0
 18 17  1  0
 19 24  2  0
 20 19  1  0
 20 21  2  0
 21 22  1  0
 22 23  2  0
 24 16  1  0
 24 23  1  0
 25 26  1  0
 27 25  2  0
M  END
$$$$
