IGW.pdb
     RDKit          3D

 27 28  0  0  1  0  0  0  0  0999 V2000
    7.0097  -12.3228   19.0729 C   0  0  0  0  0  0  0  0  0  0  0  0
    6.8887  -13.6961   19.6845 C   0  0  0  0  0  0  0  0  0  0  0  0
    8.1552  -14.1013   20.4320 C   0  0  2  0  0  0  0  0  0  0  0  0
    9.3055  -14.0668   19.4882 C   0  0  0  0  0  0  0  0  0  0  0  0
    7.8899  -15.4273   21.0842 C   0  0  2  0  0  0  0  0  0  0  0  0
    6.5665  -15.2916   21.7193 N   0  0  0  0  0  0  0  0  0  0  0  0
    8.8669  -15.8341   22.0931 C   0  0  0  0  0  0  0  0  0  0  0  0
    9.2099  -14.9950   22.9945 O   0  0  0  0  0  0  0  0  0  0  0  0
    9.4921  -17.1022   22.1780 N   0  0  0  0  0  0  0  0  0  0  0  0
   10.6960  -17.3401   22.9505 C   0  0  0  0  0  0  0  0  0  0  0  0
   10.6313  -16.6987   24.2871 C   0  0  0  0  0  0  0  0  0  0  0  0
   11.2626  -15.6463   24.5564 O   0  0  0  0  0  0  0  0  0  0  0  0
    9.8280  -17.2985   25.2914 N   0  0  0  0  0  0  0  0  0  0  0  0
    9.8692  -16.9516   26.6761 C   0  0  1  0  0  0  0  0  0  0  0  0
    8.4943  -16.8251   27.2914 C   0  0  0  0  0  0  0  0  0  0  0  0
    7.6734  -15.8653   26.5124 C   0  0  0  0  0  0  0  0  0  0  0  0
    6.7534  -16.1275   25.5130 C   0  0  0  0  0  0  0  0  0  0  0  0
    6.2291  -14.9694   25.0661 N   0  0  0  0  0  0  0  0  0  0  0  0
    6.7718  -13.9540   25.7364 C   0  0  0  0  0  0  0  0  0  0  0  0
    6.6410  -12.5802   25.7269 C   0  0  0  0  0  0  0  0  0  0  0  0
    7.3614  -11.7597   26.5672 C   0  0  0  0  0  0  0  0  0  0  0  0
    8.2494  -12.2827   27.4588 C   0  0  0  0  0  0  0  0  0  0  0  0
    8.3972  -13.6689   27.4853 C   0  0  0  0  0  0  0  0  0  0  0  0
    7.6823  -14.4906   26.6507 C   0  0  0  0  0  0  0  0  0  0  0  0
   10.7405  -17.8657   27.4359 C   0  0  0  0  0  0  0  0  0  0  0  0
   11.2360  -18.9910   26.7847 O   0  0  0  0  0  0  0  0  0  0  0  0
   11.0168  -17.6169   28.6408 O   0  0  0  0  0  0  0  0  0  0  0  0
  2  1  1  0
  3  2  1  0
  3  5  1  0
  3  4  1  6
  5  6  1  1
  7  5  1  0
  7  9  1  0
  8  7  2  0
 10  9  1  0
 11 10  1  0
 12 11  2  0
 13 11  1  0
 14 25  1  0
 14 13  1  0
 14 15  1  1
 16 15  1  0
 17 16  2  0
 18 19  1  0
 18 17  1  0
 19 24  2  0
 20 19  1  0
 20 21  2  0
 21 22  1  0
 22 23  2  0
 24 16  1  0
 24 23  1  0
 25 26  1  0
 27 25  2  0
M  END
$$$$
