IGW.pdb
     RDKit          3D

 27 28  0  0  1  0  0  0  0  0999 V2000
    8.9299  -12.0617   21.1865 C   0  0  0  0  0  0  0  0  0  0  0  0
    8.2101  -13.3868   21.1583 C   0  0  0  0  0  0  0  0  0  0  0  0
    8.2402  -14.0229   19.7721 C   0  0  2  0  0  0  0  0  0  0  0  0
    7.5567  -13.1167   18.8095 C   0  0  0  0  0  0  0  0  0  0  0  0
    7.6557  -15.4004   19.8946 C   0  0  2  0  0  0  0  0  0  0  0  0
    6.2208  -15.1928   20.1613 N   0  0  0  0  0  0  0  0  0  0  0  0
    8.2260  -16.2290   20.9558 C   0  0  0  0  0  0  0  0  0  0  0  0
    7.5796  -16.3619   22.0506 O   0  0  0  0  0  0  0  0  0  0  0  0
    9.4597  -16.9222   20.8939 N   0  0  0  0  0  0  0  0  0  0  0  0
    9.9575  -17.7486   21.9764 C   0  0  0  0  0  0  0  0  0  0  0  0
   10.5284  -16.9334   23.0772 C   0  0  0  0  0  0  0  0  0  0  0  0
   11.6456  -16.3667   22.9811 O   0  0  0  0  0  0  0  0  0  0  0  0
    9.7833  -16.7928   24.2766 N   0  0  0  0  0  0  0  0  0  0  0  0
   10.3418  -16.4268   25.5390 C   0  0  1  0  0  0  0  0  0  0  0  0
    9.9374  -15.0388   25.9804 C   0  0  0  0  0  0  0  0  0  0  0  0
    8.4605  -14.9497   26.0934 C   0  0  0  0  0  0  0  0  0  0  0  0
    7.5275  -15.9703   26.0504 C   0  0  0  0  0  0  0  0  0  0  0  0
    6.2895  -15.4572   26.1911 N   0  0  0  0  0  0  0  0  0  0  0  0
    6.3748  -14.1345   26.3253 C   0  0  0  0  0  0  0  0  0  0  0  0
    5.4801  -13.0981   26.4977 C   0  0  0  0  0  0  0  0  0  0  0  0
    5.8783  -11.7838   26.6091 C   0  0  0  0  0  0  0  0  0  0  0  0
    7.1979  -11.4486   26.5524 C   0  0  0  0  0  0  0  0  0  0  0  0
    8.1194  -12.4805   26.3787 C   0  0  0  0  0  0  0  0  0  0  0  0
    7.7282  -13.7910   26.2672 C   0  0  0  0  0  0  0  0  0  0  0  0
   10.0634  -17.4446   26.5678 C   0  0  0  0  0  0  0  0  0  0  0  0
   10.8074  -17.4090   27.7430 O   0  0  0  0  0  0  0  0  0  0  0  0
    9.1722  -18.3143   26.3690 O   0  0  0  0  0  0  0  0  0  0  0  0
  2  1  1  0
  3  2  1  0
  3  5  1  0
  3  4  1  6
  5  6  1  1
  7  5  1  0
  7  9  1  0
  8  7  2  0
 10  9  1  0
 11 10  1  0
 12 11  2  0
 13 11  1  0
 14 25  1  0
 14 13  1  0
 14 15  1  1
 16 15  1  0
 17 16  2  0
 18 19  1  0
 18 17  1  0
 19 24  2  0
 20 19  1  0
 20 21  2  0
 21 22  1  0
 22 23  2  0
 24 16  1  0
 24 23  1  0
 25 26  1  0
 27 25  2  0
M  END
$$$$
