IGW.pdb
     RDKit          3D

 27 28  0  0  1  0  0  0  0  0999 V2000
    7.4640  -12.1880   17.7486 C   0  0  0  0  0  0  0  0  0  0  0  0
    8.5692  -13.0016   18.3741 C   0  0  0  0  0  0  0  0  0  0  0  0
    8.0768  -13.8067   19.5726 C   0  0  2  0  0  0  0  0  0  0  0  0
    7.4791  -12.8753   20.5678 C   0  0  0  0  0  0  0  0  0  0  0  0
    9.2295  -14.6322   20.0663 C   0  0  2  0  0  0  0  0  0  0  0  0
    9.5356  -15.5693   18.9703 N   0  0  0  0  0  0  0  0  0  0  0  0
    8.9756  -15.3913   21.2900 C   0  0  0  0  0  0  0  0  0  0  0  0
    8.8081  -14.7567   22.3870 O   0  0  0  0  0  0  0  0  0  0  0  0
    8.8931  -16.8019   21.3885 N   0  0  0  0  0  0  0  0  0  0  0  0
    8.6476  -17.4941   22.6388 C   0  0  0  0  0  0  0  0  0  0  0  0
    9.6572  -17.1482   23.6701 C   0  0  0  0  0  0  0  0  0  0  0  0
   10.8895  -17.1416   23.4254 O   0  0  0  0  0  0  0  0  0  0  0  0
    9.2101  -16.8147   24.9748 N   0  0  0  0  0  0  0  0  0  0  0  0
   10.0688  -16.6073   26.0970 C   0  0  1  0  0  0  0  0  0  0  0  0
    9.5020  -15.6260   27.0972 C   0  0  0  0  0  0  0  0  0  0  0  0
    8.1275  -15.2310   26.7015 C   0  0  0  0  0  0  0  0  0  0  0  0
    7.0657  -16.0412   26.3409 C   0  0  0  0  0  0  0  0  0  0  0  0
    5.9925  -15.2788   26.0535 N   0  0  0  0  0  0  0  0  0  0  0  0
    6.3106  -13.9948   26.2123 C   0  0  0  0  0  0  0  0  0  0  0  0
    5.6546  -12.7887   26.0728 C   0  0  0  0  0  0  0  0  0  0  0  0
    6.2658  -11.5783   26.3166 C   0  0  0  0  0  0  0  0  0  0  0  0
    7.5684  -11.5229   26.7130 C   0  0  0  0  0  0  0  0  0  0  0  0
    8.2504  -12.7301   26.8603 C   0  0  0  0  0  0  0  0  0  0  0  0
    7.6465  -13.9383   26.6189 C   0  0  0  0  0  0  0  0  0  0  0  0
   10.4564  -17.8839   26.7232 C   0  0  0  0  0  0  0  0  0  0  0  0
   11.4998  -17.8720   27.6436 O   0  0  0  0  0  0  0  0  0  0  0  0
    9.8472  -18.9453   26.4195 O   0  0  0  0  0  0  0  0  0  0  0  0
  2  1  1  0
  3  2  1  0
  3  5  1  0
  3  4  1  1
  5  6  1  6
  7  5  1  0
  7  9  1  0
  8  7  2  0
 10  9  1  0
 11 10  1  0
 12 11  2  0
 13 11  1  0
 14 25  1  0
 14 13  1  0
 14 15  1  1
 16 15  1  0
 17 16  2  0
 18 19  1  0
 18 17  1  0
 19 24  2  0
 20 19  1  0
 20 21  2  0
 21 22  1  0
 22 23  2  0
 24 16  1  0
 24 23  1  0
 25 26  1  0
 27 25  2  0
M  END
$$$$
