IGW.pdb
     RDKit          3D

 27 28  0  0  1  0  0  0  0  0999 V2000
    7.0342  -12.3071   18.3265 C   0  0  0  0  0  0  0  0  0  0  0  0
    8.2013  -13.1942   18.6809 C   0  0  0  0  0  0  0  0  0  0  0  0
    7.9295  -14.0215   19.9335 C   0  0  2  0  0  0  0  0  0  0  0  0
    7.5621  -13.1053   21.0474 C   0  0  0  0  0  0  0  0  0  0  0  0
    9.1332  -14.8859   20.1736 C   0  0  2  0  0  0  0  0  0  0  0  0
    9.1921  -15.8017   19.0200 N   0  0  0  0  0  0  0  0  0  0  0  0
    9.1035  -15.6698   21.4076 C   0  0  0  0  0  0  0  0  0  0  0  0
    9.2549  -15.0681   22.5254 O   0  0  0  0  0  0  0  0  0  0  0  0
    8.9177  -17.0712   21.4954 N   0  0  0  0  0  0  0  0  0  0  0  0
    8.7094  -17.7640   22.7521 C   0  0  0  0  0  0  0  0  0  0  0  0
    9.5439  -17.1978   23.8408 C   0  0  0  0  0  0  0  0  0  0  0  0
   10.6420  -16.6300   23.6168 O   0  0  0  0  0  0  0  0  0  0  0  0
    9.0813  -17.3043   25.1780 N   0  0  0  0  0  0  0  0  0  0  0  0
    9.7954  -16.8344   26.3221 C   0  0  1  0  0  0  0  0  0  0  0  0
    8.9109  -16.1083   27.3096 C   0  0  0  0  0  0  0  0  0  0  0  0
    7.7915  -15.4428   26.5982 C   0  0  0  0  0  0  0  0  0  0  0  0
    6.6896  -16.0183   25.9913 C   0  0  0  0  0  0  0  0  0  0  0  0
    5.9124  -15.0551   25.4585 N   0  0  0  0  0  0  0  0  0  0  0  0
    6.4642  -13.8654   25.6935 C   0  0  0  0  0  0  0  0  0  0  0  0
    6.1466  -12.5536   25.4057 C   0  0  0  0  0  0  0  0  0  0  0  0
    6.9393  -11.4954   25.7930 C   0  0  0  0  0  0  0  0  0  0  0  0
    8.0914  -11.7063   26.4895 C   0  0  0  0  0  0  0  0  0  0  0  0
    8.4315  -13.0245   26.7911 C   0  0  0  0  0  0  0  0  0  0  0  0
    7.6456  -14.0820   26.4078 C   0  0  0  0  0  0  0  0  0  0  0  0
   10.5716  -17.9154   26.9553 C   0  0  0  0  0  0  0  0  0  0  0  0
   11.5336  -17.5658   27.8978 O   0  0  0  0  0  0  0  0  0  0  0  0
   10.3545  -19.1163   26.6380 O   0  0  0  0  0  0  0  0  0  0  0  0
  2  1  1  0
  3  2  1  0
  3  5  1  0
  3  4  1  1
  5  6  1  6
  7  5  1  0
  7  9  1  0
  8  7  2  0
 10  9  1  0
 11 10  1  0
 12 11  2  0
 13 11  1  0
 14 25  1  0
 14 13  1  0
 14 15  1  1
 16 15  1  0
 17 16  2  0
 18 19  1  0
 18 17  1  0
 19 24  2  0
 20 19  1  0
 20 21  2  0
 21 22  1  0
 22 23  2  0
 24 16  1  0
 24 23  1  0
 25 26  1  0
 27 25  2  0
M  END
$$$$
