IGW.pdb
     RDKit          3D

 27 28  0  0  1  0  0  0  0  0999 V2000
    6.3332  -21.8902   21.8992 C   0  0  0  0  0  0  0  0  0  0  0  0
    6.5408  -20.6306   21.0961 C   0  0  0  0  0  0  0  0  0  0  0  0
    7.6683  -19.7727   21.6618 C   0  0  2  0  0  0  0  0  0  0  0  0
    7.3467  -19.4202   23.0715 C   0  0  0  0  0  0  0  0  0  0  0  0
    7.8630  -18.6115   20.7302 C   0  0  2  0  0  0  0  0  0  0  0  0
    8.0339  -19.2085   19.3933 N   0  0  0  0  0  0  0  0  0  0  0  0
    9.0138  -17.7593   21.0260 C   0  0  0  0  0  0  0  0  0  0  0  0
   10.1895  -18.2111   20.8070 O   0  0  0  0  0  0  0  0  0  0  0  0
    8.9589  -16.4430   21.5461 N   0  0  0  0  0  0  0  0  0  0  0  0
   10.1419  -15.6465   21.8084 C   0  0  0  0  0  0  0  0  0  0  0  0
   10.5092  -15.6587   23.2462 C   0  0  0  0  0  0  0  0  0  0  0  0
   11.5020  -15.0288   23.6892 O   0  0  0  0  0  0  0  0  0  0  0  0
    9.7089  -16.4087   24.1465 N   0  0  0  0  0  0  0  0  0  0  0  0
    9.9174  -16.4694   25.5580 C   0  0  1  0  0  0  0  0  0  0  0  0
    8.6527  -16.7781   26.3261 C   0  0  0  0  0  0  0  0  0  0  0  0
    7.5450  -15.9106   25.8544 C   0  0  0  0  0  0  0  0  0  0  0  0
    6.3727  -16.2760   25.2171 C   0  0  0  0  0  0  0  0  0  0  0  0
    5.6368  -15.1770   24.9593 N   0  0  0  0  0  0  0  0  0  0  0  0
    6.2837  -14.1008   25.4047 C   0  0  0  0  0  0  0  0  0  0  0  0
    6.0439  -12.7420   25.4281 C   0  0  0  0  0  0  0  0  0  0  0  0
    6.9300  -11.8408   25.9767 C   0  0  0  0  0  0  0  0  0  0  0  0
    8.1016  -12.2640   26.5291 C   0  0  0  0  0  0  0  0  0  0  0  0
    8.3641  -13.6333   26.5163 C   0  0  0  0  0  0  0  0  0  0  0  0
    7.4851  -14.5351   25.9712 C   0  0  0  0  0  0  0  0  0  0  0  0
   11.0190  -17.3859   25.9020 C   0  0  0  0  0  0  0  0  0  0  0  0
   11.4061  -17.4737   27.2356 O   0  0  0  0  0  0  0  0  0  0  0  0
   11.5815  -18.0622   24.9985 O   0  0  0  0  0  0  0  0  0  0  0  0
  2  1  1  0
  3  2  1  0
  3  5  1  0
  3  4  1  1
  5  6  1  6
  7  5  1  0
  7  9  1  0
  8  7  2  0
 10  9  1  0
 11 10  1  0
 12 11  2  0
 13 11  1  0
 14 25  1  0
 14 13  1  0
 14 15  1  1
 16 15  1  0
 17 16  2  0
 18 19  1  0
 18 17  1  0
 19 24  2  0
 20 19  1  0
 20 21  2  0
 21 22  1  0
 22 23  2  0
 24 16  1  0
 24 23  1  0
 25 26  1  0
 27 25  2  0
M  END
$$$$
