IGW.pdb
     RDKit          3D

 27 28  0  0  1  0  0  0  0  0999 V2000
    6.9459  -12.3327   18.2028 C   0  0  0  0  0  0  0  0  0  0  0  0
    8.1878  -13.1012   18.5791 C   0  0  0  0  0  0  0  0  0  0  0  0
    7.9913  -13.9138   19.8551 C   0  0  2  0  0  0  0  0  0  0  0  0
    7.6871  -12.9851   20.9775 C   0  0  0  0  0  0  0  0  0  0  0  0
    9.2090  -14.7733   20.0351 C   0  0  2  0  0  0  0  0  0  0  0  0
    9.2146  -15.6886   18.8796 N   0  0  0  0  0  0  0  0  0  0  0  0
    9.2436  -15.5575   21.2687 C   0  0  0  0  0  0  0  0  0  0  0  0
    9.4056  -14.9506   22.3821 O   0  0  0  0  0  0  0  0  0  0  0  0
    9.1114  -16.9647   21.3606 N   0  0  0  0  0  0  0  0  0  0  0  0
    8.9715  -17.6650   22.6226 C   0  0  0  0  0  0  0  0  0  0  0  0
    9.8775  -17.1173   23.6625 C   0  0  0  0  0  0  0  0  0  0  0  0
   11.1027  -16.9330   23.4539 O   0  0  0  0  0  0  0  0  0  0  0  0
    9.3367  -16.7926   24.9336 N   0  0  0  0  0  0  0  0  0  0  0  0
   10.1145  -16.5389   26.1041 C   0  0  1  0  0  0  0  0  0  0  0  0
    9.4222  -15.6165   27.0812 C   0  0  0  0  0  0  0  0  0  0  0  0
    8.1035  -15.2004   26.5429 C   0  0  0  0  0  0  0  0  0  0  0  0
    7.0725  -15.9943   26.0731 C   0  0  0  0  0  0  0  0  0  0  0  0
    6.0479  -15.2153   25.6741 N   0  0  0  0  0  0  0  0  0  0  0  0
    6.3683  -13.9363   25.8649 C   0  0  0  0  0  0  0  0  0  0  0  0
    5.7502  -12.7202   25.6567 C   0  0  0  0  0  0  0  0  0  0  0  0
    6.3519  -11.5191   25.9629 C   0  0  0  0  0  0  0  0  0  0  0  0
    7.6063  -11.4838   26.4940 C   0  0  0  0  0  0  0  0  0  0  0  0
    8.2494  -12.7014   26.7128 C   0  0  0  0  0  0  0  0  0  0  0  0
    7.6548  -13.9004   26.4097 C   0  0  0  0  0  0  0  0  0  0  0  0
   10.5608  -17.7924   26.7377 C   0  0  0  0  0  0  0  0  0  0  0  0
   10.0272  -18.9892   26.2699 O   0  0  0  0  0  0  0  0  0  0  0  0
   11.4031  -17.7593   27.6756 O   0  0  0  0  0  0  0  0  0  0  0  0
  2  1  1  0
  3  2  1  0
  3  5  1  0
  3  4  1  1
  5  6  1  6
  7  5  1  0
  7  9  1  0
  8  7  2  0
 10  9  1  0
 11 10  1  0
 12 11  2  0
 13 11  1  0
 14 25  1  0
 14 13  1  0
 14 15  1  1
 16 15  1  0
 17 16  2  0
 18 19  1  0
 18 17  1  0
 19 24  2  0
 20 19  1  0
 20 21  2  0
 21 22  1  0
 22 23  2  0
 24 16  1  0
 24 23  1  0
 25 26  1  0
 27 25  2  0
M  END
$$$$
