IGW.pdb
     RDKit          3D

 27 28  0  0  1  0  0  0  0  0999 V2000
    8.3911  -11.9777   20.8794 C   0  0  0  0  0  0  0  0  0  0  0  0
    7.8559  -13.3853   20.7964 C   0  0  0  0  0  0  0  0  0  0  0  0
    8.2643  -14.0754   19.4986 C   0  0  2  0  0  0  0  0  0  0  0  0
    7.7172  -13.3050   18.3488 C   0  0  0  0  0  0  0  0  0  0  0  0
    7.8223  -15.5073   19.5902 C   0  0  2  0  0  0  0  0  0  0  0  0
    6.3490  -15.4603   19.6067 N   0  0  0  0  0  0  0  0  0  0  0  0
    8.2926  -16.2322   20.7697 C   0  0  0  0  0  0  0  0  0  0  0  0
    7.5578  -16.2531   21.8156 O   0  0  0  0  0  0  0  0  0  0  0  0
    9.5168  -16.9364   20.8766 N   0  0  0  0  0  0  0  0  0  0  0  0
    9.9029  -17.6755   22.0629 C   0  0  0  0  0  0  0  0  0  0  0  0
   10.3939  -16.7784   23.1381 C   0  0  0  0  0  0  0  0  0  0  0  0
   11.3905  -16.0293   22.9824 O   0  0  0  0  0  0  0  0  0  0  0  0
    9.7113  -16.7704   24.3821 N   0  0  0  0  0  0  0  0  0  0  0  0
   10.3104  -16.4286   25.6327 C   0  0  1  0  0  0  0  0  0  0  0  0
    9.9410  -15.0399   26.1012 C   0  0  0  0  0  0  0  0  0  0  0  0
    8.4675  -14.8666   26.0711 C   0  0  0  0  0  0  0  0  0  0  0  0
    7.4877  -15.8289   25.9048 C   0  0  0  0  0  0  0  0  0  0  0  0
    6.2726  -15.2473   25.9389 N   0  0  0  0  0  0  0  0  0  0  0  0
    6.4183  -13.9357   26.1217 C   0  0  0  0  0  0  0  0  0  0  0  0
    5.5705  -12.8530   26.2372 C   0  0  0  0  0  0  0  0  0  0  0  0
    6.0290  -11.5678   26.4280 C   0  0  0  0  0  0  0  0  0  0  0  0
    7.3643  -11.3097   26.5118 C   0  0  0  0  0  0  0  0  0  0  0  0
    8.2391  -12.3895   26.3978 C   0  0  0  0  0  0  0  0  0  0  0  0
    7.7879  -13.6714   26.2078 C   0  0  0  0  0  0  0  0  0  0  0  0
   10.0440  -17.4543   26.6569 C   0  0  0  0  0  0  0  0  0  0  0  0
   10.7895  -17.4168   27.8311 O   0  0  0  0  0  0  0  0  0  0  0  0
    9.1614  -18.3320   26.4552 O   0  0  0  0  0  0  0  0  0  0  0  0
  2  1  1  0
  3  2  1  0
  3  5  1  0
  3  4  1  6
  5  6  1  1
  7  5  1  0
  7  9  1  0
  8  7  2  0
 10  9  1  0
 11 10  1  0
 12 11  2  0
 13 11  1  0
 14 25  1  0
 14 13  1  0
 14 15  1  1
 16 15  1  0
 17 16  2  0
 18 19  1  0
 18 17  1  0
 19 24  2  0
 20 19  1  0
 20 21  2  0
 21 22  1  0
 22 23  2  0
 24 16  1  0
 24 23  1  0
 25 26  1  0
 27 25  2  0
M  END
$$$$
