IGW.pdb
     RDKit          3D

 27 28  0  0  1  0  0  0  0  0999 V2000
    7.8909  -11.7985   18.5107 C   0  0  0  0  0  0  0  0  0  0  0  0
    8.3982  -13.2158   18.4184 C   0  0  0  0  0  0  0  0  0  0  0  0
    8.1748  -13.9874   19.7153 C   0  0  2  0  0  0  0  0  0  0  0  0
    8.8562  -13.2707   20.8275 C   0  0  0  0  0  0  0  0  0  0  0  0
    8.6232  -15.4012   19.4825 C   0  0  2  0  0  0  0  0  0  0  0  0
    8.1263  -15.7518   18.1397 N   0  0  0  0  0  0  0  0  0  0  0  0
    8.1280  -16.3808   20.4484 C   0  0  0  0  0  0  0  0  0  0  0  0
    6.8714  -16.6076   20.5092 O   0  0  0  0  0  0  0  0  0  0  0  0
    8.9219  -17.1286   21.3521 N   0  0  0  0  0  0  0  0  0  0  0  0
    8.4845  -17.4725   22.6912 C   0  0  0  0  0  0  0  0  0  0  0  0
    9.2909  -16.7850   23.7301 C   0  0  0  0  0  0  0  0  0  0  0  0
    9.9599  -15.7506   23.4832 O   0  0  0  0  0  0  0  0  0  0  0  0
    9.3033  -17.3183   25.0450 N   0  0  0  0  0  0  0  0  0  0  0  0
   10.0870  -16.8016   26.1214 C   0  0  1  0  0  0  0  0  0  0  0  0
    9.8196  -15.3391   26.3937 C   0  0  0  0  0  0  0  0  0  0  0  0
    8.3696  -15.0526   26.2620 C   0  0  0  0  0  0  0  0  0  0  0  0
    7.3208  -15.9454   26.1321 C   0  0  0  0  0  0  0  0  0  0  0  0
    6.1595  -15.2681   26.0401 N   0  0  0  0  0  0  0  0  0  0  0  0
    6.4071  -13.9607   26.1049 C   0  0  0  0  0  0  0  0  0  0  0  0
    5.6499  -12.8076   26.0672 C   0  0  0  0  0  0  0  0  0  0  0  0
    6.2060  -11.5505   26.1604 C   0  0  0  0  0  0  0  0  0  0  0  0
    7.5527  -11.3928   26.2962 C   0  0  0  0  0  0  0  0  0  0  0  0
    8.3369  -12.5449   26.3367 C   0  0  0  0  0  0  0  0  0  0  0  0
    7.7883  -13.7993   26.2443 C   0  0  0  0  0  0  0  0  0  0  0  0
    9.9531  -17.6303   27.3327 C   0  0  0  0  0  0  0  0  0  0  0  0
   10.7764  -17.3434   28.4171 O   0  0  0  0  0  0  0  0  0  0  0  0
    9.1103  -18.5677   27.3650 O   0  0  0  0  0  0  0  0  0  0  0  0
  2  1  1  0
  3  2  1  0
  3  5  1  0
  3  4  1  1
  5  6  1  6
  7  5  1  0
  7  9  1  0
  8  7  2  0
 10  9  1  0
 11 10  1  0
 12 11  2  0
 13 11  1  0
 14 25  1  0
 14 13  1  0
 14 15  1  1
 16 15  1  0
 17 16  2  0
 18 19  1  0
 18 17  1  0
 19 24  2  0
 20 19  1  0
 20 21  2  0
 21 22  1  0
 22 23  2  0
 24 16  1  0
 24 23  1  0
 25 26  1  0
 27 25  2  0
M  END
$$$$
