GWG.pdb
     RDKit          3D

 23 24  0  0  1  0  0  0  0  0999 V2000
    6.7260  -15.2315   19.7294 N   0  0  0  0  0  0  0  0  0  0  0  0
    6.9346  -16.0257   20.9026 C   0  0  0  0  0  0  0  0  0  0  0  0
    7.9939  -15.4196   21.7908 C   0  0  0  0  0  0  0  0  0  0  0  0
    8.5136  -14.3537   21.4415 O   0  0  0  0  0  0  0  0  0  0  0  0
    8.3995  -16.0300   22.9924 N   0  0  0  0  0  0  0  0  0  0  0  0
    9.3829  -15.6137   23.9171 C   0  0  1  0  0  0  0  0  0  0  0  0
    9.0180  -15.5003   25.3583 C   0  0  0  0  0  0  0  0  0  0  0  0
    7.6831  -15.0085   25.6895 C   0  0  0  0  0  0  0  0  0  0  0  0
    6.4468  -15.5585   25.7790 C   0  0  0  0  0  0  0  0  0  0  0  0
    5.5602  -14.6222   26.1349 N   0  0  0  0  0  0  0  0  0  0  0  0
    6.1863  -13.4420   26.2884 C   0  0  0  0  0  0  0  0  0  0  0  0
    5.7601  -12.1754   26.6467 C   0  0  0  0  0  0  0  0  0  0  0  0
    6.6412  -11.1240   26.7372 C   0  0  0  0  0  0  0  0  0  0  0  0
    7.9809  -11.3132   26.4699 C   0  0  0  0  0  0  0  0  0  0  0  0
    8.3841  -12.5793   26.1153 C   0  0  0  0  0  0  0  0  0  0  0  0
    7.5166  -13.6428   26.0190 C   0  0  0  0  0  0  0  0  0  0  0  0
   10.6873  -16.2976   23.8418 C   0  0  0  0  0  0  0  0  0  0  0  0
   11.5891  -15.9709   24.6658 O   0  0  0  0  0  0  0  0  0  0  0  0
   10.9749  -17.3103   22.8810 N   0  0  0  0  0  0  0  0  0  0  0  0
   12.2869  -17.8833   22.8682 C   0  0  0  0  0  0  0  0  0  0  0  0
   13.2012  -17.1968   21.9333 C   0  0  0  0  0  0  0  0  0  0  0  0
   14.5679  -17.3946   21.9167 O   0  0  0  0  0  0  0  0  0  0  0  0
   12.7015  -16.3886   21.1089 O   0  0  0  0  0  0  0  0  0  0  0  0
  1  2  1  0
  3  4  2  0
  3  2  1  0
  5  3  1  0
  6  5  1  0
  6 17  1  0
  6  7  1  1
  8  7  1  0
  9  8  2  0
 10 11  1  0
 10  9  1  0
 11 16  2  0
 12 11  1  0
 12 13  2  0
 13 14  1  0
 14 15  2  0
 16  8  1  0
 16 15  1  0
 17 19  1  0
 17 18  2  0
 19 20  1  0
 20 21  1  0
 21 23  2  0
 21 22  1  0
M  END
$$$$
