GWG.pdb
     RDKit          3D

 23 24  0  0  1  0  0  0  0  0999 V2000
    5.8756  -19.0175   20.5626 N   0  0  0  0  0  0  0  0  0  0  0  0
    6.1618  -18.3545   21.7992 C   0  0  0  0  0  0  0  0  0  0  0  0
    7.2861  -17.3603   21.6381 C   0  0  0  0  0  0  0  0  0  0  0  0
    7.8124  -17.2443   20.5256 O   0  0  0  0  0  0  0  0  0  0  0  0
    7.7444  -16.5714   22.7098 N   0  0  0  0  0  0  0  0  0  0  0  0
    8.8095  -15.6439   22.7435 C   0  0  1  0  0  0  0  0  0  0  0  0
    8.6870  -14.4338   23.6058 C   0  0  0  0  0  0  0  0  0  0  0  0
    7.6676  -14.4392   24.6518 C   0  0  0  0  0  0  0  0  0  0  0  0
    6.8308  -15.3671   25.1789 C   0  0  0  0  0  0  0  0  0  0  0  0
    6.0909  -14.8117   26.1450 N   0  0  0  0  0  0  0  0  0  0  0  0
    6.4205  -13.5146   26.2775 C   0  0  0  0  0  0  0  0  0  0  0  0
    5.9833  -12.4993   27.1096 C   0  0  0  0  0  0  0  0  0  0  0  0
    6.5155  -11.2340   27.0333 C   0  0  0  0  0  0  0  0  0  0  0  0
    7.5058  -10.9491   26.1167 C   0  0  0  0  0  0  0  0  0  0  0  0
    7.9260  -11.9718   25.2989 C   0  0  0  0  0  0  0  0  0  0  0  0
    7.4045  -13.2434   25.3606 C   0  0  0  0  0  0  0  0  0  0  0  0
   10.1595  -16.2009   22.9488 C   0  0  0  0  0  0  0  0  0  0  0  0
   11.1591  -15.4595   22.7250 O   0  0  0  0  0  0  0  0  0  0  0  0
   10.3857  -17.5377   23.3884 N   0  0  0  0  0  0  0  0  0  0  0  0
   11.7373  -17.9925   23.5162 C   0  0  0  0  0  0  0  0  0  0  0  0
   12.1827  -18.0725   24.9219 C   0  0  0  0  0  0  0  0  0  0  0  0
   13.4592  -18.4399   25.2999 O   0  0  0  0  0  0  0  0  0  0  0  0
   11.3489  -17.7889   25.8202 O   0  0  0  0  0  0  0  0  0  0  0  0
  1  2  1  0
  3  4  2  0
  3  2  1  0
  5  3  1  0
  6  5  1  0
  6 17  1  0
  6  7  1  1
  8  7  1  0
  9  8  2  0
 10 11  1  0
 10  9  1  0
 11 16  2  0
 12 11  1  0
 12 13  2  0
 13 14  1  0
 14 15  2  0
 16  8  1  0
 16 15  1  0
 17 19  1  0
 17 18  2  0
 19 20  1  0
 20 21  1  0
 21 23  2  0
 21 22  1  0
M  END
$$$$
