GWG.pdb
     RDKit          3D

 23 24  0  0  1  0  0  0  0  0999 V2000
    5.1607  -19.6688   22.4720 N   0  0  0  0  0  0  0  0  0  0  0  0
    6.0423  -19.1133   23.4543 C   0  0  0  0  0  0  0  0  0  0  0  0
    6.8572  -17.9808   22.8783 C   0  0  0  0  0  0  0  0  0  0  0  0
    6.7084  -17.6986   21.6839 O   0  0  0  0  0  0  0  0  0  0  0  0
    7.7709  -17.2468   23.6575 N   0  0  0  0  0  0  0  0  0  0  0  0
    8.5741  -16.1446   23.2892 C   0  0  1  0  0  0  0  0  0  0  0  0
    8.0702  -14.7652   23.5464 C   0  0  0  0  0  0  0  0  0  0  0  0
    7.2329  -14.5510   24.7239 C   0  0  0  0  0  0  0  0  0  0  0  0
    6.4630  -15.3372   25.5165 C   0  0  0  0  0  0  0  0  0  0  0  0
    5.9063  -14.5981   26.4824 N   0  0  0  0  0  0  0  0  0  0  0  0
    6.2938  -13.3170   26.3513 C   0  0  0  0  0  0  0  0  0  0  0  0
    6.0287  -12.1622   27.0658 C   0  0  0  0  0  0  0  0  0  0  0  0
    6.5815  -10.9562   26.7053 C   0  0  0  0  0  0  0  0  0  0  0  0
    7.4197  -10.8730   25.6132 C   0  0  0  0  0  0  0  0  0  0  0  0
    7.6702  -12.0320   24.9165 C   0  0  0  0  0  0  0  0  0  0  0  0
    7.1253  -13.2471   25.2623 C   0  0  0  0  0  0  0  0  0  0  0  0
    9.9853  -16.1885   23.7150 C   0  0  0  0  0  0  0  0  0  0  0  0
   10.2493  -16.0610   24.9450 O   0  0  0  0  0  0  0  0  0  0  0  0
   11.0635  -16.3686   22.8004 N   0  0  0  0  0  0  0  0  0  0  0  0
   12.3882  -16.0470   23.2383 C   0  0  0  0  0  0  0  0  0  0  0  0
   13.3687  -16.0380   22.1339 C   0  0  0  0  0  0  0  0  0  0  0  0
   14.7076  -15.7445   22.3024 O   0  0  0  0  0  0  0  0  0  0  0  0
   12.9554  -16.3140   20.9783 O   0  0  0  0  0  0  0  0  0  0  0  0
  1  2  1  0
  3  4  2  0
  3  2  1  0
  5  3  1  0
  6  5  1  0
  6 17  1  0
  6  7  1  1
  8  7  1  0
  9  8  2  0
 10 11  1  0
 10  9  1  0
 11 16  2  0
 12 11  1  0
 12 13  2  0
 13 14  1  0
 14 15  2  0
 16  8  1  0
 16 15  1  0
 17 19  1  0
 17 18  2  0
 19 20  1  0
 20 21  1  0
 21 23  2  0
 21 22  1  0
M  END
$$$$
