GWG.pdb
     RDKit          3D

 23 24  0  0  1  0  0  0  0  0999 V2000
    6.0267  -20.1112   23.0623 N   0  0  0  0  0  0  0  0  0  0  0  0
    6.7585  -19.1831   23.8710 C   0  0  0  0  0  0  0  0  0  0  0  0
    7.1792  -17.9748   23.0703 C   0  0  0  0  0  0  0  0  0  0  0  0
    6.6941  -17.8188   21.9440 O   0  0  0  0  0  0  0  0  0  0  0  0
    8.0985  -17.0324   23.5680 N   0  0  0  0  0  0  0  0  0  0  0  0
    8.6038  -15.8666   22.9506 C   0  0  1  0  0  0  0  0  0  0  0  0
    8.2376  -14.5348   23.5120 C   0  0  0  0  0  0  0  0  0  0  0  0
    7.2706  -14.4958   24.6060 C   0  0  0  0  0  0  0  0  0  0  0  0
    6.4653  -15.4013   25.2148 C   0  0  0  0  0  0  0  0  0  0  0  0
    5.7707  -14.8049   26.1901 N   0  0  0  0  0  0  0  0  0  0  0  0
    6.0999  -13.5022   26.2477 C   0  0  0  0  0  0  0  0  0  0  0  0
    5.6989  -12.4516   27.0538 C   0  0  0  0  0  0  0  0  0  0  0  0
    6.2204  -11.1895   26.8947 C   0  0  0  0  0  0  0  0  0  0  0  0
    7.1632  -10.9436   25.9186 C   0  0  0  0  0  0  0  0  0  0  0  0
    7.5480  -12.0010   25.1280 C   0  0  0  0  0  0  0  0  0  0  0  0
    7.0365  -13.2700   25.2723 C   0  0  0  0  0  0  0  0  0  0  0  0
   10.0512  -15.8470   22.6687 C   0  0  0  0  0  0  0  0  0  0  0  0
   10.5198  -14.8949   21.9809 O   0  0  0  0  0  0  0  0  0  0  0  0
   10.9439  -16.8540   23.1380 N   0  0  0  0  0  0  0  0  0  0  0  0
   12.3209  -16.7756   22.7538 C   0  0  0  0  0  0  0  0  0  0  0  0
   13.2325  -16.6758   23.9115 C   0  0  0  0  0  0  0  0  0  0  0  0
   14.5889  -16.4417   23.7989 O   0  0  0  0  0  0  0  0  0  0  0  0
   12.7403  -16.8123   25.0611 O   0  0  0  0  0  0  0  0  0  0  0  0
  1  2  1  0
  3  4  2  0
  3  2  1  0
  5  3  1  0
  6  5  1  0
  6 17  1  0
  6  7  1  1
  8  7  1  0
  9  8  2  0
 10 11  1  0
 10  9  1  0
 11 16  2  0
 12 11  1  0
 12 13  2  0
 13 14  1  0
 14 15  2  0
 16  8  1  0
 16 15  1  0
 17 19  1  0
 17 18  2  0
 19 20  1  0
 20 21  1  0
 21 23  2  0
 21 22  1  0
M  END
$$$$
