GWG.pdb
     RDKit          3D

 23 24  0  0  1  0  0  0  0  0999 V2000
    7.4002  -16.9360   19.7513 N   0  0  0  0  0  0  0  0  0  0  0  0
    7.4933  -17.3136   21.1295 C   0  0  0  0  0  0  0  0  0  0  0  0
    8.5039  -16.4641   21.8612 C   0  0  0  0  0  0  0  0  0  0  0  0
    9.1593  -15.6412   21.2120 O   0  0  0  0  0  0  0  0  0  0  0  0
    8.7159  -16.5838   23.2475 N   0  0  0  0  0  0  0  0  0  0  0  0
    9.5713  -15.8362   24.0871 C   0  0  1  0  0  0  0  0  0  0  0  0
    9.1262  -15.5193   25.4744 C   0  0  0  0  0  0  0  0  0  0  0  0
    7.7440  -15.0883   25.6679 C   0  0  0  0  0  0  0  0  0  0  0  0
    6.5348  -15.7019   25.6809 C   0  0  0  0  0  0  0  0  0  0  0  0
    5.5735  -14.8015   25.9144 N   0  0  0  0  0  0  0  0  0  0  0  0
    6.1221  -13.5824   26.0610 C   0  0  0  0  0  0  0  0  0  0  0  0
    5.6016  -12.3267   26.3190 C   0  0  0  0  0  0  0  0  0  0  0  0
    6.4160  -11.2247   26.4305 C   0  0  0  0  0  0  0  0  0  0  0  0
    7.7817  -11.3507   26.2860 C   0  0  0  0  0  0  0  0  0  0  0  0
    8.2790  -12.6071   26.0297 C   0  0  0  0  0  0  0  0  0  0  0  0
    7.4792  -13.7206   25.9141 C   0  0  0  0  0  0  0  0  0  0  0  0
   10.9743  -16.2844   24.1623 C   0  0  0  0  0  0  0  0  0  0  0  0
   11.7747  -15.6422   24.9012 O   0  0  0  0  0  0  0  0  0  0  0  0
   11.4663  -17.4094   23.4387 N   0  0  0  0  0  0  0  0  0  0  0  0
   12.8336  -17.7923   23.6233 C   0  0  0  0  0  0  0  0  0  0  0  0
   13.7209  -17.2710   22.5641 C   0  0  0  0  0  0  0  0  0  0  0  0
   15.0929  -17.4286   22.5696 O   0  0  0  0  0  0  0  0  0  0  0  0
   13.1918  -16.6502   21.6063 O   0  0  0  0  0  0  0  0  0  0  0  0
  1  2  1  0
  3  4  2  0
  3  2  1  0
  5  3  1  0
  6  5  1  0
  6 17  1  0
  6  7  1  1
  8  7  1  0
  9  8  2  0
 10 11  1  0
 10  9  1  0
 11 16  2  0
 12 11  1  0
 12 13  2  0
 13 14  1  0
 14 15  2  0
 16  8  1  0
 16 15  1  0
 17 19  1  0
 17 18  2  0
 19 20  1  0
 20 21  1  0
 21 23  2  0
 21 22  1  0
M  END
$$$$
