GWG.pdb
     RDKit          3D

 23 24  0  0  1  0  0  0  0  0999 V2000
    5.3846  -19.9076   23.3584 N   0  0  0  0  0  0  0  0  0  0  0  0
    6.6144  -19.5122   23.9764 C   0  0  0  0  0  0  0  0  0  0  0  0
    7.1276  -18.2183   23.3925 C   0  0  0  0  0  0  0  0  0  0  0  0
    6.7174  -17.8734   22.2785 O   0  0  0  0  0  0  0  0  0  0  0  0
    8.0499  -17.4044   24.0764 N   0  0  0  0  0  0  0  0  0  0  0  0
    8.7194  -16.2439   23.6287 C   0  0  1  0  0  0  0  0  0  0  0  0
    8.7140  -15.0281   24.4917 C   0  0  0  0  0  0  0  0  0  0  0  0
    7.4788  -14.6946   25.1963 C   0  0  0  0  0  0  0  0  0  0  0  0
    6.4080  -15.3923   25.6496 C   0  0  0  0  0  0  0  0  0  0  0  0
    5.5444  -14.5604   26.2425 N   0  0  0  0  0  0  0  0  0  0  0  0
    6.0223  -13.3042   26.1956 C   0  0  0  0  0  0  0  0  0  0  0  0
    5.5508  -12.0864   26.6528 C   0  0  0  0  0  0  0  0  0  0  0  0
    6.2694  -10.9285   26.4716 C   0  0  0  0  0  0  0  0  0  0  0  0
    7.4868  -10.9584   25.8241 C   0  0  0  0  0  0  0  0  0  0  0  0
    7.9374  -12.1785   25.3773 C   0  0  0  0  0  0  0  0  0  0  0  0
    7.2316  -13.3470   25.5489 C   0  0  0  0  0  0  0  0  0  0  0  0
   10.0954  -16.4296   23.1317 C   0  0  0  0  0  0  0  0  0  0  0  0
   11.0495  -16.3728   23.9596 O   0  0  0  0  0  0  0  0  0  0  0  0
   10.3959  -16.6702   21.7594 N   0  0  0  0  0  0  0  0  0  0  0  0
   11.5734  -16.0729   21.2056 C   0  0  0  0  0  0  0  0  0  0  0  0
   12.8007  -16.8321   21.5190 C   0  0  0  0  0  0  0  0  0  0  0  0
   13.9696  -16.7309   20.7905 O   0  0  0  0  0  0  0  0  0  0  0  0
   12.7739  -17.6125   22.5054 O   0  0  0  0  0  0  0  0  0  0  0  0
  1  2  1  0
  3  4  2  0
  3  2  1  0
  5  3  1  0
  6  5  1  0
  6 17  1  0
  6  7  1  1
  8  7  1  0
  9  8  2  0
 10 11  1  0
 10  9  1  0
 11 16  2  0
 12 11  1  0
 12 13  2  0
 13 14  1  0
 14 15  2  0
 16  8  1  0
 16 15  1  0
 17 19  1  0
 17 18  2  0
 19 20  1  0
 20 21  1  0
 21 23  2  0
 21 22  1  0
M  END
$$$$
