GWG.pdb
     RDKit          3D

 23 24  0  0  1  0  0  0  0  0999 V2000
    6.7929  -16.5711   19.8002 N   0  0  0  0  0  0  0  0  0  0  0  0
    7.0562  -16.9856   21.1454 C   0  0  0  0  0  0  0  0  0  0  0  0
    8.1671  -16.1696   21.7605 C   0  0  0  0  0  0  0  0  0  0  0  0
    8.7092  -15.3001   21.0689 O   0  0  0  0  0  0  0  0  0  0  0  0
    8.5958  -16.3712   23.0858 N   0  0  0  0  0  0  0  0  0  0  0  0
    9.5662  -15.6613   23.8275 C   0  0  1  0  0  0  0  0  0  0  0  0
    9.2432  -15.2362   25.2196 C   0  0  0  0  0  0  0  0  0  0  0  0
    7.8554  -14.9014   25.5283 C   0  0  0  0  0  0  0  0  0  0  0  0
    6.6853  -15.5852   25.5751 C   0  0  0  0  0  0  0  0  0  0  0  0
    5.6935  -14.7604   25.9294 N   0  0  0  0  0  0  0  0  0  0  0  0
    6.1827  -13.5229   26.1242 C   0  0  0  0  0  0  0  0  0  0  0  0
    5.6122  -12.3196   26.4995 C   0  0  0  0  0  0  0  0  0  0  0  0
    6.3703  -11.1808   26.6347 C   0  0  0  0  0  0  0  0  0  0  0  0
    7.7283  -11.2159   26.3966 C   0  0  0  0  0  0  0  0  0  0  0  0
    8.2758  -12.4214   26.0245 C   0  0  0  0  0  0  0  0  0  0  0  0
    7.5326  -13.5705   25.8834 C   0  0  0  0  0  0  0  0  0  0  0  0
   10.9275  -16.2283   23.8408 C   0  0  0  0  0  0  0  0  0  0  0  0
   11.8245  -15.6301   24.5015 O   0  0  0  0  0  0  0  0  0  0  0  0
   11.2752  -17.4207   23.1416 N   0  0  0  0  0  0  0  0  0  0  0  0
   12.6314  -17.8753   23.2041 C   0  0  0  0  0  0  0  0  0  0  0  0
   13.4085  -17.5222   21.9990 C   0  0  0  0  0  0  0  0  0  0  0  0
   14.7473  -17.8206   21.8377 O   0  0  0  0  0  0  0  0  0  0  0  0
   12.8126  -16.9164   21.0714 O   0  0  0  0  0  0  0  0  0  0  0  0
  1  2  1  0
  3  4  2  0
  3  2  1  0
  5  3  1  0
  6  5  1  0
  6 17  1  0
  6  7  1  1
  8  7  1  0
  9  8  2  0
 10 11  1  0
 10  9  1  0
 11 16  2  0
 12 11  1  0
 12 13  2  0
 13 14  1  0
 14 15  2  0
 16  8  1  0
 16 15  1  0
 17 19  1  0
 17 18  2  0
 19 20  1  0
 20 21  1  0
 21 23  2  0
 21 22  1  0
M  END
$$$$
