GWG.pdb
     RDKit          3D

 23 24  0  0  1  0  0  0  0  0999 V2000
    6.6377  -17.8310   19.7661 N   0  0  0  0  0  0  0  0  0  0  0  0
    6.9157  -17.9332   21.1672 C   0  0  0  0  0  0  0  0  0  0  0  0
    7.8497  -16.8372   21.6198 C   0  0  0  0  0  0  0  0  0  0  0  0
    8.1812  -15.9727   20.8006 O   0  0  0  0  0  0  0  0  0  0  0  0
    8.3463  -16.7754   22.9352 N   0  0  0  0  0  0  0  0  0  0  0  0
    9.2111  -15.8229   23.5187 C   0  0  1  0  0  0  0  0  0  0  0  0
    9.0362  -15.4737   24.9576 C   0  0  0  0  0  0  0  0  0  0  0  0
    7.7028  -15.0859   25.4105 C   0  0  0  0  0  0  0  0  0  0  0  0
    6.5278  -15.7311   25.6157 C   0  0  0  0  0  0  0  0  0  0  0  0
    5.6062  -14.8646   26.0506 N   0  0  0  0  0  0  0  0  0  0  0  0
    6.1479  -13.6372   26.1429 C   0  0  0  0  0  0  0  0  0  0  0  0
    5.6571  -12.4049   26.5368 C   0  0  0  0  0  0  0  0  0  0  0  0
    6.4564  -11.2863   26.5429 C   0  0  0  0  0  0  0  0  0  0  0  0
    7.7764  -11.3714   26.1525 C   0  0  0  0  0  0  0  0  0  0  0  0
    8.2445  -12.6050   25.7645 C   0  0  0  0  0  0  0  0  0  0  0  0
    7.4592  -13.7346   25.7514 C   0  0  0  0  0  0  0  0  0  0  0  0
   10.6540  -16.0120   23.2798 C   0  0  0  0  0  0  0  0  0  0  0  0
   11.4514  -15.1016   23.6464 O   0  0  0  0  0  0  0  0  0  0  0  0
   11.1880  -17.1759   22.6540 N   0  0  0  0  0  0  0  0  0  0  0  0
   12.5777  -17.1865   22.3098 C   0  0  0  0  0  0  0  0  0  0  0  0
   13.4318  -17.7050   23.3974 C   0  0  0  0  0  0  0  0  0  0  0  0
   14.8083  -17.7839   23.3174 O   0  0  0  0  0  0  0  0  0  0  0  0
   12.8686  -18.0946   24.4526 O   0  0  0  0  0  0  0  0  0  0  0  0
  1  2  1  0
  3  4  2  0
  3  2  1  0
  5  3  1  0
  6  5  1  0
  6 17  1  0
  6  7  1  1
  8  7  1  0
  9  8  2  0
 10 11  1  0
 10  9  1  0
 11 16  2  0
 12 11  1  0
 12 13  2  0
 13 14  1  0
 14 15  2  0
 16  8  1  0
 16 15  1  0
 17 19  1  0
 17 18  2  0
 19 20  1  0
 20 21  1  0
 21 23  2  0
 21 22  1  0
M  END
$$$$
