GWG.pdb
     RDKit          3D

 23 24  0  0  1  0  0  0  0  0999 V2000
    5.8148  -19.4619   22.3717 N   0  0  0  0  0  0  0  0  0  0  0  0
    6.7247  -19.1050   23.4183 C   0  0  0  0  0  0  0  0  0  0  0  0
    7.4517  -17.8221   23.0958 C   0  0  0  0  0  0  0  0  0  0  0  0
    7.1742  -17.2390   22.0416 O   0  0  0  0  0  0  0  0  0  0  0  0
    8.4256  -17.2796   23.9548 N   0  0  0  0  0  0  0  0  0  0  0  0
    9.2627  -16.1585   23.7597 C   0  0  1  0  0  0  0  0  0  0  0  0
    9.0573  -14.9473   24.6045 C   0  0  0  0  0  0  0  0  0  0  0  0
    7.7339  -14.7343   25.1850 C   0  0  0  0  0  0  0  0  0  0  0  0
    6.6561  -15.5159   25.4427 C   0  0  0  0  0  0  0  0  0  0  0  0
    5.6883  -14.7813   26.0022 N   0  0  0  0  0  0  0  0  0  0  0  0
    6.1024  -13.5078   26.1267 C   0  0  0  0  0  0  0  0  0  0  0  0
    5.5190  -12.3602   26.6336 C   0  0  0  0  0  0  0  0  0  0  0  0
    6.1924  -11.1616   26.6451 C   0  0  0  0  0  0  0  0  0  0  0  0
    7.4756  -11.0790   26.1467 C   0  0  0  0  0  0  0  0  0  0  0  0
    8.0372  -12.2308   25.6473 C   0  0  0  0  0  0  0  0  0  0  0  0
    7.3782  -13.4383   25.6269 C   0  0  0  0  0  0  0  0  0  0  0  0
   10.7127  -16.4223   23.7069 C   0  0  0  0  0  0  0  0  0  0  0  0
   11.3368  -16.5865   24.7943 O   0  0  0  0  0  0  0  0  0  0  0  0
   11.4402  -16.5004   22.4838 N   0  0  0  0  0  0  0  0  0  0  0  0
   12.8187  -16.8841   22.5352 C   0  0  0  0  0  0  0  0  0  0  0  0
   13.5025  -16.7339   21.2348 C   0  0  0  0  0  0  0  0  0  0  0  0
   14.8578  -16.5018   21.1058 O   0  0  0  0  0  0  0  0  0  0  0  0
   12.8068  -16.8237   20.1906 O   0  0  0  0  0  0  0  0  0  0  0  0
  1  2  1  0
  3  4  2  0
  3  2  1  0
  5  3  1  0
  6  5  1  0
  6 17  1  0
  6  7  1  1
  8  7  1  0
  9  8  2  0
 10 11  1  0
 10  9  1  0
 11 16  2  0
 12 11  1  0
 12 13  2  0
 13 14  1  0
 14 15  2  0
 16  8  1  0
 16 15  1  0
 17 19  1  0
 17 18  2  0
 19 20  1  0
 20 21  1  0
 21 23  2  0
 21 22  1  0
M  END
$$$$
