GWG.pdb
     RDKit          3D

 23 24  0  0  1  0  0  0  0  0999 V2000
    6.6899  -19.3656   21.6411 N   0  0  0  0  0  0  0  0  0  0  0  0
    7.3194  -19.1273   22.9051 C   0  0  0  0  0  0  0  0  0  0  0  0
    8.1370  -17.8588   22.8773 C   0  0  0  0  0  0  0  0  0  0  0  0
    8.4506  -17.3863   21.7788 O   0  0  0  0  0  0  0  0  0  0  0  0
    8.5458  -17.2080   24.0563 N   0  0  0  0  0  0  0  0  0  0  0  0
    9.4456  -16.1305   24.2148 C   0  0  1  0  0  0  0  0  0  0  0  0
    9.1648  -15.1017   25.2567 C   0  0  0  0  0  0  0  0  0  0  0  0
    7.7685  -14.7999   25.5616 C   0  0  0  0  0  0  0  0  0  0  0  0
    6.6304  -15.5257   25.6910 C   0  0  0  0  0  0  0  0  0  0  0  0
    5.6091  -14.7154   25.9904 N   0  0  0  0  0  0  0  0  0  0  0  0
    6.0465  -13.4460   26.0659 C   0  0  0  0  0  0  0  0  0  0  0  0
    5.4296  -12.2393   26.3448 C   0  0  0  0  0  0  0  0  0  0  0  0
    6.1390  -11.0619   26.3645 C   0  0  0  0  0  0  0  0  0  0  0  0
    7.4934  -11.0605   26.1041 C   0  0  0  0  0  0  0  0  0  0  0  0
    8.0874  -12.2700   25.8291 C   0  0  0  0  0  0  0  0  0  0  0  0
    7.3933  -13.4576   25.8043 C   0  0  0  0  0  0  0  0  0  0  0  0
   10.8761  -16.4771   24.3069 C   0  0  0  0  0  0  0  0  0  0  0  0
   11.3173  -16.9355   25.3997 O   0  0  0  0  0  0  0  0  0  0  0  0
   11.7818  -16.3178   23.2181 N   0  0  0  0  0  0  0  0  0  0  0  0
   13.1845  -16.2694   23.5012 C   0  0  0  0  0  0  0  0  0  0  0  0
   14.0100  -16.1566   22.2818 C   0  0  0  0  0  0  0  0  0  0  0  0
   15.3884  -16.0723   22.2965 O   0  0  0  0  0  0  0  0  0  0  0  0
   13.4192  -16.1369   21.1713 O   0  0  0  0  0  0  0  0  0  0  0  0
  1  2  1  0
  3  4  2  0
  3  2  1  0
  5  3  1  0
  6  5  1  0
  6 17  1  0
  6  7  1  1
  8  7  1  0
  9  8  2  0
 10 11  1  0
 10  9  1  0
 11 16  2  0
 12 11  1  0
 12 13  2  0
 13 14  1  0
 14 15  2  0
 16  8  1  0
 16 15  1  0
 17 19  1  0
 17 18  2  0
 19 20  1  0
 20 21  1  0
 21 23  2  0
 21 22  1  0
M  END
$$$$
