GWG.pdb
     RDKit          3D

 23 24  0  0  1  0  0  0  0  0999 V2000
    6.1454  -19.4704   20.1741 N   0  0  0  0  0  0  0  0  0  0  0  0
    6.4452  -18.9697   21.4818 C   0  0  0  0  0  0  0  0  0  0  0  0
    7.3491  -17.7630   21.4104 C   0  0  0  0  0  0  0  0  0  0  0  0
    7.7236  -17.3749   20.2981 O   0  0  0  0  0  0  0  0  0  0  0  0
    7.7707  -17.0767   22.5646 N   0  0  0  0  0  0  0  0  0  0  0  0
    8.6372  -15.9665   22.6760 C   0  0  1  0  0  0  0  0  0  0  0  0
    8.0810  -14.6576   23.1232 C   0  0  0  0  0  0  0  0  0  0  0  0
    7.3118  -14.6291   24.3647 C   0  0  0  0  0  0  0  0  0  0  0  0
    6.5652  -15.5241   25.0579 C   0  0  0  0  0  0  0  0  0  0  0  0
    6.0781  -14.9473   26.1622 N   0  0  0  0  0  0  0  0  0  0  0  0
    6.4899  -13.6686   26.2234 C   0  0  0  0  0  0  0  0  0  0  0  0
    6.2913  -12.6447   27.1326 C   0  0  0  0  0  0  0  0  0  0  0  0
    6.8542  -11.4044   26.9462 C   0  0  0  0  0  0  0  0  0  0  0  0
    7.6360  -11.1539   25.8380 C   0  0  0  0  0  0  0  0  0  0  0  0
    7.8209  -12.1846   24.9464 C   0  0  0  0  0  0  0  0  0  0  0  0
    7.2649  -13.4315   25.1163 C   0  0  0  0  0  0  0  0  0  0  0  0
    9.8973  -16.1875   23.4096 C   0  0  0  0  0  0  0  0  0  0  0  0
    9.8363  -16.5599   24.6165 O   0  0  0  0  0  0  0  0  0  0  0  0
   11.1800  -15.9998   22.8172 N   0  0  0  0  0  0  0  0  0  0  0  0
   12.3416  -16.2717   23.6088 C   0  0  0  0  0  0  0  0  0  0  0  0
   13.5963  -15.8791   22.9360 C   0  0  0  0  0  0  0  0  0  0  0  0
   14.7931  -15.6912   23.5990 O   0  0  0  0  0  0  0  0  0  0  0  0
   13.5670  -15.7080   21.6901 O   0  0  0  0  0  0  0  0  0  0  0  0
  1  2  1  0
  3  4  2  0
  3  2  1  0
  5  3  1  0
  6  5  1  0
  6 17  1  0
  6  7  1  1
  8  7  1  0
  9  8  2  0
 10 11  1  0
 10  9  1  0
 11 16  2  0
 12 11  1  0
 12 13  2  0
 13 14  1  0
 14 15  2  0
 16  8  1  0
 16 15  1  0
 17 19  1  0
 17 18  2  0
 19 20  1  0
 20 21  1  0
 21 23  2  0
 21 22  1  0
M  END
$$$$
