GWG.pdb
     RDKit          3D

 23 24  0  0  1  0  0  0  0  0999 V2000
    7.5043  -19.1924   22.0604 N   0  0  0  0  0  0  0  0  0  0  0  0
    6.9455  -17.9225   21.7059 C   0  0  0  0  0  0  0  0  0  0  0  0
    7.7642  -16.7883   22.2729 C   0  0  0  0  0  0  0  0  0  0  0  0
    7.6986  -15.6839   21.7215 O   0  0  0  0  0  0  0  0  0  0  0  0
    8.5902  -16.9546   23.4003 N   0  0  0  0  0  0  0  0  0  0  0  0
    9.4325  -16.0152   24.0357 C   0  0  1  0  0  0  0  0  0  0  0  0
    9.0959  -15.5593   25.4147 C   0  0  0  0  0  0  0  0  0  0  0  0
    7.7310  -15.1071   25.6718 C   0  0  0  0  0  0  0  0  0  0  0  0
    6.5174  -15.7052   25.7629 C   0  0  0  0  0  0  0  0  0  0  0  0
    5.5801  -14.7882   26.0271 N   0  0  0  0  0  0  0  0  0  0  0  0
    6.1494  -13.5731   26.1169 C   0  0  0  0  0  0  0  0  0  0  0  0
    5.6575  -12.3057   26.3740 C   0  0  0  0  0  0  0  0  0  0  0  0
    6.4890  -11.2117   26.4173 C   0  0  0  0  0  0  0  0  0  0  0  0
    7.8435  -11.3577   26.2031 C   0  0  0  0  0  0  0  0  0  0  0  0
    8.3123  -12.6254   25.9489 C   0  0  0  0  0  0  0  0  0  0  0  0
    7.4950  -13.7312   25.9010 C   0  0  0  0  0  0  0  0  0  0  0  0
   10.8788  -16.3020   24.0034 C   0  0  0  0  0  0  0  0  0  0  0  0
   11.5200  -16.2972   25.0933 O   0  0  0  0  0  0  0  0  0  0  0  0
   11.5842  -16.5844   22.7976 N   0  0  0  0  0  0  0  0  0  0  0  0
   12.9609  -16.9668   22.8882 C   0  0  0  0  0  0  0  0  0  0  0  0
   13.5890  -17.1584   21.5654 C   0  0  0  0  0  0  0  0  0  0  0  0
   14.7498  -16.5227   21.1707 O   0  0  0  0  0  0  0  0  0  0  0  0
   13.0314  -17.9455   20.7579 O   0  0  0  0  0  0  0  0  0  0  0  0
  1  2  1  0
  3  4  2  0
  3  2  1  0
  5  3  1  0
  6  5  1  0
  6 17  1  0
  6  7  1  1
  8  7  1  0
  9  8  2  0
 10 11  1  0
 10  9  1  0
 11 16  2  0
 12 11  1  0
 12 13  2  0
 13 14  1  0
 14 15  2  0
 16  8  1  0
 16 15  1  0
 17 19  1  0
 17 18  2  0
 19 20  1  0
 20 21  1  0
 21 23  2  0
 21 22  1  0
M  END
$$$$
