QQQ.pdb
     RDKit          3D

 28 27  0  0  1  0  0  0  0  0999 V2000
    7.4492  -21.4615   20.8249 N   0  0  0  0  0  0  0  0  0  0  0  0
    7.4308  -21.7188   19.4369 C   0  0  0  0  0  0  0  0  0  0  0  0
    7.0384  -22.8091   19.0105 O   0  0  0  0  0  0  0  0  0  0  0  0
    7.8945  -20.6465   18.5051 C   0  0  0  0  0  0  0  0  0  0  0  0
    8.3710  -19.4630   19.3025 C   0  0  0  0  0  0  0  0  0  0  0  0
    8.1065  -18.1424   18.6299 C   0  0  2  0  0  0  0  0  0  0  0  0
    8.6734  -18.1714   17.2810 N   0  0  0  0  0  0  0  0  0  0  0  0
    8.7074  -17.0537   19.4258 C   0  0  0  0  0  0  0  0  0  0  0  0
    9.9584  -16.9551   19.4582 O   0  0  0  0  0  0  0  0  0  0  0  0
    9.2305  -12.1127   18.9443 N   0  0  0  0  0  0  0  0  0  0  0  0
    8.1110  -12.9665   18.7058 C   0  0  0  0  0  0  0  0  0  0  0  0
    7.9899  -13.4511   17.5824 O   0  0  0  0  0  0  0  0  0  0  0  0
    7.2002  -13.1985   19.8029 C   0  0  0  0  0  0  0  0  0  0  0  0
    7.6601  -13.8563   21.0346 C   0  0  0  0  0  0  0  0  0  0  0  0
    8.5333  -15.0572   20.9275 C   0  0  2  0  0  0  0  0  0  0  0  0
    7.9421  -16.1136   20.1558 N   0  0  0  0  0  0  0  0  0  0  0  0
    9.1987  -15.4835   22.1698 C   0  0  0  0  0  0  0  0  0  0  0  0
    8.4812  -15.9871   23.0851 O   0  0  0  0  0  0  0  0  0  0  0  0
   12.0155  -20.3333   21.5244 N   0  0  0  0  0  0  0  0  0  0  0  0
   11.6049  -20.1801   22.8714 C   0  0  0  0  0  0  0  0  0  0  0  0
   11.1836  -21.1596   23.4922 O   0  0  0  0  0  0  0  0  0  0  0  0
   11.7057  -18.8297   23.4665 C   0  0  0  0  0  0  0  0  0  0  0  0
   11.1108  -17.7358   22.6522 C   0  0  0  0  0  0  0  0  0  0  0  0
   11.2798  -16.3837   23.2800 C   0  0  2  0  0  0  0  0  0  0  0  0
   10.5880  -15.3802   22.4403 N   0  0  0  0  0  0  0  0  0  0  0  0
   12.7019  -16.0153   23.4357 C   0  0  0  0  0  0  0  0  0  0  0  0
   13.5335  -16.6026   24.1590 O   0  0  0  0  0  0  0  0  0  0  0  0
   13.1827  -14.9190   22.7231 O   0  0  0  0  0  0  0  0  0  0  0  0
  2  1  1  0
  2  3  2  0
  4  2  1  0
  5  4  1  0
  6  7  1  6
  6  5  1  0
  8  6  1  0
  9  8  2  0
 11 10  1  0
 11 12  2  0
 13 14  1  0
 13 11  1  0
 15 14  1  1
 15 16  1  0
 16  8  1  0
 17 15  1  0
 17 18  2  0
 19 20  1  0
 20 22  1  0
 20 21  2  0
 22 23  1  0
 24 23  1  6
 24 25  1  0
 25 17  1  0
 26 24  1  0
 27 26  2  0
 28 26  1  0
M  END
$$$$
