QQQ.pdb
     RDKit          3D

 28 27  0  0  1  0  0  0  0  0999 V2000
    5.5767  -19.2905   18.1100 N   0  0  0  0  0  0  0  0  0  0  0  0
    6.2774  -18.7204   19.1948 C   0  0  0  0  0  0  0  0  0  0  0  0
    5.9743  -19.0131   20.3554 O   0  0  0  0  0  0  0  0  0  0  0  0
    7.3862  -17.7615   18.9046 C   0  0  0  0  0  0  0  0  0  0  0  0
    7.9181  -17.2060   20.1978 C   0  0  0  0  0  0  0  0  0  0  0  0
    8.2431  -15.7377   20.1298 C   0  0  2  0  0  0  0  0  0  0  0  0
    9.3253  -15.5322   19.1662 N   0  0  0  0  0  0  0  0  0  0  0  0
    8.6375  -15.2566   21.4688 C   0  0  0  0  0  0  0  0  0  0  0  0
    9.8309  -15.4015   21.8301 O   0  0  0  0  0  0  0  0  0  0  0  0
    5.2817  -12.4319   26.9471 N   0  0  0  0  0  0  0  0  0  0  0  0
    6.5807  -12.0811   26.4689 C   0  0  0  0  0  0  0  0  0  0  0  0
    6.9575  -10.9225   26.6334 O   0  0  0  0  0  0  0  0  0  0  0  0
    7.3587  -13.1142   25.8251 C   0  0  0  0  0  0  0  0  0  0  0  0
    7.1397  -13.4479   24.4102 C   0  0  0  0  0  0  0  0  0  0  0  0
    8.0289  -14.4491   23.7598 C   0  0  2  0  0  0  0  0  0  0  0  0
    7.7356  -14.6390   22.3674 N   0  0  0  0  0  0  0  0  0  0  0  0
    8.2775  -15.6832   24.5234 C   0  0  0  0  0  0  0  0  0  0  0  0
    7.9162  -16.7833   24.0082 O   0  0  0  0  0  0  0  0  0  0  0  0
   13.2049  -16.5640   23.4087 N   0  0  0  0  0  0  0  0  0  0  0  0
   13.3174  -17.4712   24.4906 C   0  0  0  0  0  0  0  0  0  0  0  0
   14.3481  -18.1371   24.6192 O   0  0  0  0  0  0  0  0  0  0  0  0
   12.1712  -17.5705   25.4204 C   0  0  0  0  0  0  0  0  0  0  0  0
   11.0420  -16.6463   25.1301 C   0  0  0  0  0  0  0  0  0  0  0  0
    9.9086  -16.7872   26.1028 C   0  0  2  0  0  0  0  0  0  0  0  0
    8.8920  -15.7548   25.8006 N   0  0  0  0  0  0  0  0  0  0  0  0
   10.3572  -16.6567   27.5043 C   0  0  0  0  0  0  0  0  0  0  0  0
   10.3010  -15.6180   28.1954 O   0  0  0  0  0  0  0  0  0  0  0  0
   10.8945  -17.7774   28.1336 O   0  0  0  0  0  0  0  0  0  0  0  0
  2  1  1  0
  2  3  2  0
  4  2  1  0
  5  4  1  0
  6  7  1  6
  6  5  1  0
  8  6  1  0
  9  8  2  0
 11 10  1  0
 11 12  2  0
 13 14  1  0
 13 11  1  0
 15 14  1  1
 15 16  1  0
 16  8  1  0
 17 15  1  0
 17 18  2  0
 19 20  1  0
 20 22  1  0
 20 21  2  0
 22 23  1  0
 24 23  1  6
 24 25  1  0
 25 17  1  0
 26 24  1  0
 27 26  2  0
 28 26  1  0
M  END
$$$$
