QQQ.pdb
     RDKit          3D

 28 27  0  0  1  0  0  0  0  0999 V2000
    8.0469  -12.3691   18.1002 N   0  0  0  0  0  0  0  0  0  0  0  0
    7.9806  -13.6012   17.4142 C   0  0  0  0  0  0  0  0  0  0  0  0
    8.0431  -13.6323   16.1815 O   0  0  0  0  0  0  0  0  0  0  0  0
    7.8339  -14.8563   18.2120 C   0  0  0  0  0  0  0  0  0  0  0  0
    9.1474  -15.1894   18.8657 C   0  0  0  0  0  0  0  0  0  0  0  0
   10.2002  -15.6500   17.8932 C   0  0  2  0  0  0  0  0  0  0  0  0
    9.7555  -16.8929   17.2612 N   0  0  0  0  0  0  0  0  0  0  0  0
   11.4764  -15.8544   18.6070 C   0  0  0  0  0  0  0  0  0  0  0  0
   11.6875  -16.9659   19.1509 O   0  0  0  0  0  0  0  0  0  0  0  0
   17.3091  -13.0139   17.2599 N   0  0  0  0  0  0  0  0  0  0  0  0
   16.0290  -13.5250   16.8867 C   0  0  0  0  0  0  0  0  0  0  0  0
   15.5012  -13.0644   15.8764 O   0  0  0  0  0  0  0  0  0  0  0  0
   15.4460  -14.5472   17.7248 C   0  0  0  0  0  0  0  0  0  0  0  0
   14.8051  -14.1971   19.0007 C   0  0  0  0  0  0  0  0  0  0  0  0
   13.6695  -15.0271   19.4884 C   0  0  2  0  0  0  0  0  0  0  0  0
   12.4758  -14.8579   18.7090 N   0  0  0  0  0  0  0  0  0  0  0  0
   13.4691  -15.0523   20.9468 C   0  0  0  0  0  0  0  0  0  0  0  0
   12.3670  -14.6233   21.4024 O   0  0  0  0  0  0  0  0  0  0  0  0
   11.3575  -19.6415   24.9643 N   0  0  0  0  0  0  0  0  0  0  0  0
   11.2419  -18.3500   24.3944 C   0  0  0  0  0  0  0  0  0  0  0  0
   10.1728  -18.0057   23.8837 O   0  0  0  0  0  0  0  0  0  0  0  0
   12.4319  -17.4727   24.4443 C   0  0  0  0  0  0  0  0  0  0  0  0
   12.8536  -16.9070   23.1345 C   0  0  0  0  0  0  0  0  0  0  0  0
   13.9820  -15.9263   23.2592 C   0  0  2  0  0  0  0  0  0  0  0  0
   14.4093  -15.5186   21.9020 N   0  0  0  0  0  0  0  0  0  0  0  0
   15.1296  -16.4884   24.0005 C   0  0  0  0  0  0  0  0  0  0  0  0
   15.2352  -16.5530   25.2432 O   0  0  0  0  0  0  0  0  0  0  0  0
   16.2020  -16.9979   23.2717 O   0  0  0  0  0  0  0  0  0  0  0  0
  2  1  1  0
  2  3  2  0
  4  2  1  0
  5  4  1  0
  6  7  1  1
  6  5  1  0
  8  6  1  0
  9  8  2  0
 11 10  1  0
 11 12  2  0
 13 14  1  0
 13 11  1  0
 15 14  1  1
 15 16  1  0
 16  8  1  0
 17 15  1  0
 17 18  2  0
 19 20  1  0
 20 22  1  0
 20 21  2  0
 22 23  1  0
 24 23  1  6
 24 25  1  0
 25 17  1  0
 26 24  1  0
 27 26  2  0
 28 26  1  0
M  END
$$$$
