QQQ.pdb
     RDKit          3D

 28 27  0  0  1  0  0  0  0  0999 V2000
    5.0180  -19.1484   24.2242 N   0  0  0  0  0  0  0  0  0  0  0  0
    6.2853  -19.7372   24.4247 C   0  0  0  0  0  0  0  0  0  0  0  0
    6.5837  -20.2148   25.5235 O   0  0  0  0  0  0  0  0  0  0  0  0
    7.2482  -19.7671   23.2823 C   0  0  0  0  0  0  0  0  0  0  0  0
    6.6334  -19.0818   22.0923 C   0  0  0  0  0  0  0  0  0  0  0  0
    7.5449  -19.0285   20.8954 C   0  0  2  0  0  0  0  0  0  0  0  0
    8.1948  -20.3294   20.7316 N   0  0  0  0  0  0  0  0  0  0  0  0
    8.5493  -17.9632   21.0867 C   0  0  0  0  0  0  0  0  0  0  0  0
    9.6933  -18.2839   21.4917 O   0  0  0  0  0  0  0  0  0  0  0  0
    8.3734  -12.0506   18.6427 N   0  0  0  0  0  0  0  0  0  0  0  0
    8.2776  -13.3343   18.0246 C   0  0  0  0  0  0  0  0  0  0  0  0
    7.9087  -13.3791   16.8526 O   0  0  0  0  0  0  0  0  0  0  0  0
    8.6208  -14.4888   18.8223 C   0  0  0  0  0  0  0  0  0  0  0  0
    8.9948  -14.3405   20.2363 C   0  0  0  0  0  0  0  0  0  0  0  0
    9.2614  -15.5628   21.0433 C   0  0  2  0  0  0  0  0  0  0  0  0
    8.2862  -16.5956   20.8357 N   0  0  0  0  0  0  0  0  0  0  0  0
    9.6490  -15.3375   22.4458 C   0  0  0  0  0  0  0  0  0  0  0  0
   10.5828  -14.5130   22.6788 O   0  0  0  0  0  0  0  0  0  0  0  0
    5.8990  -12.4954   25.5632 N   0  0  0  0  0  0  0  0  0  0  0  0
    6.8076  -13.3997   26.1657 C   0  0  0  0  0  0  0  0  0  0  0  0
    6.6815  -13.6804   27.3605 O   0  0  0  0  0  0  0  0  0  0  0  0
    7.8754  -13.9649   25.3122 C   0  0  0  0  0  0  0  0  0  0  0  0
    8.4713  -15.2354   25.8065 C   0  0  0  0  0  0  0  0  0  0  0  0
    9.5906  -15.7306   24.9390 C   0  0  2  0  0  0  0  0  0  0  0  0
    9.0657  -15.9678   23.5756 N   0  0  0  0  0  0  0  0  0  0  0  0
   10.1989  -16.9691   25.4667 C   0  0  0  0  0  0  0  0  0  0  0  0
   10.2167  -18.0769   24.8905 O   0  0  0  0  0  0  0  0  0  0  0  0
   10.8134  -16.9236   26.7161 O   0  0  0  0  0  0  0  0  0  0  0  0
  2  1  1  0
  2  3  2  0
  4  2  1  0
  5  4  1  0
  6  7  1  1
  6  5  1  0
  8  6  1  0
  9  8  2  0
 11 10  1  0
 11 12  2  0
 13 14  1  0
 13 11  1  0
 15 14  1  1
 15 16  1  0
 16  8  1  0
 17 15  1  0
 17 18  2  0
 19 20  1  0
 20 22  1  0
 20 21  2  0
 22 23  1  0
 24 23  1  1
 24 25  1  0
 25 17  1  0
 26 24  1  0
 27 26  2  0
 28 26  1  0
M  END
$$$$
