QQQ.pdb
     RDKit          3D

 28 27  0  0  1  0  0  0  0  0999 V2000
    8.1045  -11.6849   18.8283 N   0  0  0  0  0  0  0  0  0  0  0  0
    7.9368  -12.7028   19.7922 C   0  0  0  0  0  0  0  0  0  0  0  0
    8.2809  -12.5150   20.9630 O   0  0  0  0  0  0  0  0  0  0  0  0
    7.3371  -14.0022   19.3622 C   0  0  0  0  0  0  0  0  0  0  0  0
    8.3750  -15.0874   19.4568 C   0  0  0  0  0  0  0  0  0  0  0  0
    9.1767  -15.2605   18.1944 C   0  0  2  0  0  0  0  0  0  0  0  0
    8.6029  -16.3550   17.4105 N   0  0  0  0  0  0  0  0  0  0  0  0
   10.5839  -15.5460   18.5383 C   0  0  0  0  0  0  0  0  0  0  0  0
   10.8846  -16.7035   18.9197 O   0  0  0  0  0  0  0  0  0  0  0  0
   16.0576  -14.2867   16.3368 N   0  0  0  0  0  0  0  0  0  0  0  0
   16.4326  -14.2621   17.7145 C   0  0  0  0  0  0  0  0  0  0  0  0
   17.6289  -14.3515   17.9837 O   0  0  0  0  0  0  0  0  0  0  0  0
   15.3778  -14.1344   18.6933 C   0  0  0  0  0  0  0  0  0  0  0  0
   13.9753  -14.0017   18.2732 C   0  0  0  0  0  0  0  0  0  0  0  0
   12.9336  -14.7994   18.9767 C   0  0  2  0  0  0  0  0  0  0  0  0
   11.6130  -14.5780   18.4593 N   0  0  0  0  0  0  0  0  0  0  0  0
   13.0345  -14.8392   20.4451 C   0  0  0  0  0  0  0  0  0  0  0  0
   12.4954  -13.8998   21.1032 O   0  0  0  0  0  0  0  0  0  0  0  0
    9.1995  -15.8764   23.1085 N   0  0  0  0  0  0  0  0  0  0  0  0
    9.8892  -16.5921   24.1175 C   0  0  0  0  0  0  0  0  0  0  0  0
    9.3397  -16.7899   25.2044 O   0  0  0  0  0  0  0  0  0  0  0  0
   11.2541  -17.0690   23.8047 C   0  0  0  0  0  0  0  0  0  0  0  0
   11.7919  -16.6235   22.4910 C   0  0  0  0  0  0  0  0  0  0  0  0
   13.2292  -16.1997   22.5629 C   0  0  2  0  0  0  0  0  0  0  0  0
   13.6890  -15.8461   21.2012 N   0  0  0  0  0  0  0  0  0  0  0  0
   14.0942  -17.2557   23.1278 C   0  0  0  0  0  0  0  0  0  0  0  0
   14.4091  -17.3762   24.3303 O   0  0  0  0  0  0  0  0  0  0  0  0
   14.6176  -18.2144   22.2631 O   0  0  0  0  0  0  0  0  0  0  0  0
  2  1  1  0
  2  3  2  0
  4  2  1  0
  5  4  1  0
  6  7  1  1
  6  5  1  0
  8  6  1  0
  9  8  2  0
 11 10  1  0
 11 12  2  0
 13 14  1  0
 13 11  1  0
 15 14  1  1
 15 16  1  0
 16  8  1  0
 17 15  1  0
 17 18  2  0
 19 20  1  0
 20 22  1  0
 20 21  2  0
 22 23  1  0
 24 23  1  6
 24 25  1  0
 25 17  1  0
 26 24  1  0
 27 26  2  0
 28 26  1  0
M  END
$$$$
