QQQ.pdb
     RDKit          3D

 28 27  0  0  1  0  0  0  0  0999 V2000
   16.4362  -30.0294   34.6143 N   0  0  0  0  0  0  0  0  0  0  0  0
   16.6185  -29.5894   33.2853 C   0  0  0  0  0  0  0  0  0  0  0  0
   17.4860  -30.1028   32.5724 O   0  0  0  0  0  0  0  0  0  0  0  0
   15.7416  -28.4954   32.7682 C   0  0  0  0  0  0  0  0  0  0  0  0
   14.8514  -28.0022   33.8764 C   0  0  0  0  0  0  0  0  0  0  0  0
   13.8560  -26.9657   33.4282 C   0  0  2  0  0  0  0  0  0  0  0  0
   13.0645  -27.5096   32.3239 N   0  0  0  0  0  0  0  0  0  0  0  0
   14.5707  -25.7444   33.0067 C   0  0  0  0  0  0  0  0  0  0  0  0
   15.2604  -25.1301   33.8568 O   0  0  0  0  0  0  0  0  0  0  0  0
   18.5403  -22.7871   29.6767 N   0  0  0  0  0  0  0  0  0  0  0  0
   18.6157  -24.1430   30.1182 C   0  0  0  0  0  0  0  0  0  0  0  0
   19.7324  -24.6380   30.2583 O   0  0  0  0  0  0  0  0  0  0  0  0
   17.3729  -24.8360   30.3678 C   0  0  0  0  0  0  0  0  0  0  0  0
   16.0825  -24.1653   30.1524 C   0  0  0  0  0  0  0  0  0  0  0  0
   15.1537  -24.0026   31.3044 C   0  0  2  0  0  0  0  0  0  0  0  0
   14.5171  -25.2304   31.6893 N   0  0  0  0  0  0  0  0  0  0  0  0
   14.2715  -22.8247   31.2600 C   0  0  0  0  0  0  0  0  0  0  0  0
   14.0384  -22.2995   30.1304 O   0  0  0  0  0  0  0  0  0  0  0  0
   11.2805  -19.6829   35.9791 N   0  0  0  0  0  0  0  0  0  0  0  0
   10.9906  -18.8855   34.8450 C   0  0  0  0  0  0  0  0  0  0  0  0
   10.3714  -17.8281   34.9891 O   0  0  0  0  0  0  0  0  0  0  0  0
   11.4547  -19.3760   33.5288 C   0  0  0  0  0  0  0  0  0  0  0  0
   12.2698  -20.6200   33.5712 C   0  0  0  0  0  0  0  0  0  0  0  0
   12.7767  -21.0310   32.2204 C   0  0  2  0  0  0  0  0  0  0  0  0
   13.6504  -22.2149   32.3809 N   0  0  0  0  0  0  0  0  0  0  0  0
   13.5196  -19.9445   31.5495 C   0  0  0  0  0  0  0  0  0  0  0  0
   13.0643  -19.1828   30.6709 O   0  0  0  0  0  0  0  0  0  0  0  0
   14.8477  -19.7303   31.9113 O   0  0  0  0  0  0  0  0  0  0  0  0
  2  1  1  0
  2  3  2  0
  4  2  1  0
  5  4  1  0
  6  7  1  6
  6  5  1  0
  8  6  1  0
  9  8  2  0
 11 10  1  0
 11 12  2  0
 13 14  1  0
 13 11  1  0
 15 14  1  6
 15 16  1  0
 16  8  1  0
 17 15  1  0
 17 18  2  0
 19 20  1  0
 20 22  1  0
 20 21  2  0
 22 23  1  0
 24 23  1  1
 24 25  1  0
 25 17  1  0
 26 24  1  0
 27 26  2  0
 28 26  1  0
M  END
$$$$
