QQQ.pdb
     RDKit          3D

 28 27  0  0  1  0  0  0  0  0999 V2000
   13.8745  -13.8023   19.9218 N   0  0  0  0  0  0  0  0  0  0  0  0
   13.9052  -14.4237   18.6546 C   0  0  0  0  0  0  0  0  0  0  0  0
   14.9144  -14.3475   17.9475 O   0  0  0  0  0  0  0  0  0  0  0  0
   12.6946  -15.1698   18.1951 C   0  0  0  0  0  0  0  0  0  0  0  0
   11.7363  -15.3241   19.3447 C   0  0  0  0  0  0  0  0  0  0  0  0
   10.4587  -16.0260   18.9687 C   0  0  2  0  0  0  0  0  0  0  0  0
    9.7467  -15.2218   17.9746 N   0  0  0  0  0  0  0  0  0  0  0  0
    9.6290  -16.2208   20.1744 C   0  0  0  0  0  0  0  0  0  0  0  0
    8.7367  -15.3759   20.4308 O   0  0  0  0  0  0  0  0  0  0  0  0
    8.3078  -21.7062   23.1764 N   0  0  0  0  0  0  0  0  0  0  0  0
    7.7520  -20.7185   24.0452 C   0  0  0  0  0  0  0  0  0  0  0  0
    7.1424  -21.1083   25.0391 O   0  0  0  0  0  0  0  0  0  0  0  0
    7.9460  -19.3310   23.6924 C   0  0  0  0  0  0  0  0  0  0  0  0
    8.6815  -18.9614   22.4744 C   0  0  0  0  0  0  0  0  0  0  0  0
    8.9496  -17.5224   22.2030 C   0  0  2  0  0  0  0  0  0  0  0  0
    9.7897  -17.3146   21.0576 N   0  0  0  0  0  0  0  0  0  0  0  0
    9.2719  -16.6941   23.3769 C   0  0  0  0  0  0  0  0  0  0  0  0
   10.4892  -16.5895   23.7138 O   0  0  0  0  0  0  0  0  0  0  0  0
    5.5491  -12.6416   26.4643 N   0  0  0  0  0  0  0  0  0  0  0  0
    6.7496  -12.0204   26.0409 C   0  0  0  0  0  0  0  0  0  0  0  0
    6.8092  -10.7892   25.9868 O   0  0  0  0  0  0  0  0  0  0  0  0
    7.8830  -12.8999   25.6804 C   0  0  0  0  0  0  0  0  0  0  0  0
    7.6172  -14.3577   25.8138 C   0  0  0  0  0  0  0  0  0  0  0  0
    8.7660  -15.2045   25.3515 C   0  0  2  0  0  0  0  0  0  0  0  0
    8.3321  -15.9934   24.1767 N   0  0  0  0  0  0  0  0  0  0  0  0
    9.2544  -16.1089   26.4126 C   0  0  0  0  0  0  0  0  0  0  0  0
    8.7952  -17.2399   26.6766 O   0  0  0  0  0  0  0  0  0  0  0  0
   10.3208  -15.6859   27.2028 O   0  0  0  0  0  0  0  0  0  0  0  0
  2  1  1  0
  2  3  2  0
  4  2  1  0
  5  4  1  0
  6  7  1  6
  6  5  1  0
  8  6  1  0
  9  8  2  0
 11 10  1  0
 11 12  2  0
 13 14  1  0
 13 11  1  0
 15 14  1  1
 15 16  1  0
 16  8  1  0
 17 15  1  0
 17 18  2  0
 19 20  1  0
 20 22  1  0
 20 21  2  0
 22 23  1  0
 24 23  1  1
 24 25  1  0
 25 17  1  0
 26 24  1  0
 27 26  2  0
 28 26  1  0
M  END
$$$$
