QQQ.pdb
     RDKit          3D

 28 27  0  0  1  0  0  0  0  0999 V2000
    7.6640  -12.1000   18.7004 N   0  0  0  0  0  0  0  0  0  0  0  0
    7.7642  -13.2959   17.9569 C   0  0  0  0  0  0  0  0  0  0  0  0
    7.1749  -13.4101   16.8780 O   0  0  0  0  0  0  0  0  0  0  0  0
    8.5949  -14.4106   18.5051 C   0  0  0  0  0  0  0  0  0  0  0  0
    8.1777  -14.6947   19.9225 C   0  0  0  0  0  0  0  0  0  0  0  0
    9.0126  -15.7540   20.5913 C   0  0  2  0  0  0  0  0  0  0  0  0
    8.9515  -16.9820   19.7975 N   0  0  0  0  0  0  0  0  0  0  0  0
    8.5081  -15.9901   21.9586 C   0  0  0  0  0  0  0  0  0  0  0  0
    8.4039  -15.0104   22.7365 O   0  0  0  0  0  0  0  0  0  0  0  0
    5.6677  -21.3283   23.8059 N   0  0  0  0  0  0  0  0  0  0  0  0
    5.1613  -20.3069   22.9460 C   0  0  0  0  0  0  0  0  0  0  0  0
    4.1817  -20.5756   22.2534 O   0  0  0  0  0  0  0  0  0  0  0  0
    5.8380  -19.0306   22.9518 C   0  0  0  0  0  0  0  0  0  0  0  0
    6.8973  -18.7464   23.9307 C   0  0  0  0  0  0  0  0  0  0  0  0
    7.6977  -17.4997   23.7850 C   0  0  2  0  0  0  0  0  0  0  0  0
    8.1353  -17.2685   22.4374 N   0  0  0  0  0  0  0  0  0  0  0  0
    8.7122  -17.2596   24.8248 C   0  0  0  0  0  0  0  0  0  0  0  0
    9.9017  -17.6288   24.5905 O   0  0  0  0  0  0  0  0  0  0  0  0
    8.7594  -12.6571   28.8567 N   0  0  0  0  0  0  0  0  0  0  0  0
    8.5976  -12.7458   27.4523 C   0  0  0  0  0  0  0  0  0  0  0  0
    8.1846  -11.7661   26.8262 O   0  0  0  0  0  0  0  0  0  0  0  0
    8.9384  -14.0318   26.8057 C   0  0  0  0  0  0  0  0  0  0  0  0
    9.3618  -15.1127   27.7362 C   0  0  0  0  0  0  0  0  0  0  0  0
    9.5804  -16.4255   27.0438 C   0  0  2  0  0  0  0  0  0  0  0  0
    8.4770  -16.6450   26.0821 N   0  0  0  0  0  0  0  0  0  0  0  0
    9.6501  -17.5530   27.9959 C   0  0  0  0  0  0  0  0  0  0  0  0
    8.8067  -18.4671   28.1083 O   0  0  0  0  0  0  0  0  0  0  0  0
   10.7440  -17.6258   28.8554 O   0  0  0  0  0  0  0  0  0  0  0  0
  2  1  1  0
  2  3  2  0
  4  2  1  0
  5  4  1  0
  6  7  1  6
  6  5  1  0
  8  6  1  0
  9  8  2  0
 11 10  1  0
 11 12  2  0
 13 14  1  0
 13 11  1  0
 15 14  1  6
 15 16  1  0
 16  8  1  0
 17 15  1  0
 17 18  2  0
 19 20  1  0
 20 22  1  0
 20 21  2  0
 22 23  1  0
 24 23  1  1
 24 25  1  0
 25 17  1  0
 26 24  1  0
 27 26  2  0
 28 26  1  0
M  END
$$$$
