QQQ.pdb
     RDKit          3D

 28 27  0  0  1  0  0  0  0  0999 V2000
    7.1250  -13.2182   20.1177 N   0  0  0  0  0  0  0  0  0  0  0  0
    6.8173  -12.7265   18.8306 C   0  0  0  0  0  0  0  0  0  0  0  0
    5.8062  -12.0412   18.6507 O   0  0  0  0  0  0  0  0  0  0  0  0
    7.7395  -13.0541   17.7013 C   0  0  0  0  0  0  0  0  0  0  0  0
    8.8861  -13.8812   18.2160 C   0  0  0  0  0  0  0  0  0  0  0  0
    9.8178  -14.3531   17.1318 C   0  0  2  0  0  0  0  0  0  0  0  0
    9.0653  -15.1672   16.1764 N   0  0  0  0  0  0  0  0  0  0  0  0
   10.9177  -15.1345   17.7314 C   0  0  0  0  0  0  0  0  0  0  0  0
   10.7898  -16.3802   17.8183 O   0  0  0  0  0  0  0  0  0  0  0  0
   17.2051  -14.3561   17.5806 N   0  0  0  0  0  0  0  0  0  0  0  0
   16.5473  -13.4583   18.4753 C   0  0  0  0  0  0  0  0  0  0  0  0
   17.1797  -12.4825   18.8746 O   0  0  0  0  0  0  0  0  0  0  0  0
   15.1849  -13.7625   18.8474 C   0  0  0  0  0  0  0  0  0  0  0  0
   14.5128  -14.9604   18.3235 C   0  0  0  0  0  0  0  0  0  0  0  0
   13.1588  -15.3089   18.8350 C   0  0  2  0  0  0  0  0  0  0  0  0
   12.1117  -14.5482   18.2142 N   0  0  0  0  0  0  0  0  0  0  0  0
   13.0415  -15.4648   20.2944 C   0  0  0  0  0  0  0  0  0  0  0  0
   12.6015  -14.4823   20.9632 O   0  0  0  0  0  0  0  0  0  0  0  0
   11.8059  -19.8836   26.0608 N   0  0  0  0  0  0  0  0  0  0  0  0
   12.1202  -19.6612   24.6977 C   0  0  0  0  0  0  0  0  0  0  0  0
   12.1063  -20.6102   23.9093 O   0  0  0  0  0  0  0  0  0  0  0  0
   12.4542  -18.2789   24.2907 C   0  0  0  0  0  0  0  0  0  0  0  0
   12.6736  -18.0867   22.8318 C   0  0  0  0  0  0  0  0  0  0  0  0
   13.1489  -16.7053   22.4907 C   0  0  2  0  0  0  0  0  0  0  0  0
   13.3807  -16.6295   21.0308 N   0  0  0  0  0  0  0  0  0  0  0  0
   14.3849  -16.3462   23.2158 C   0  0  0  0  0  0  0  0  0  0  0  0
   15.5283  -16.2737   22.7189 O   0  0  0  0  0  0  0  0  0  0  0  0
   14.2936  -16.0583   24.5758 O   0  0  0  0  0  0  0  0  0  0  0  0
  2  1  1  0
  2  3  2  0
  4  2  1  0
  5  4  1  0
  6  7  1  6
  6  5  1  0
  8  6  1  0
  9  8  2  0
 11 10  1  0
 11 12  2  0
 13 14  1  0
 13 11  1  0
 15 14  1  1
 15 16  1  0
 16  8  1  0
 17 15  1  0
 17 18  2  0
 19 20  1  0
 20 22  1  0
 20 21  2  0
 22 23  1  0
 24 23  1  6
 24 25  1  0
 25 17  1  0
 26 24  1  0
 27 26  2  0
 28 26  1  0
M  END
$$$$
