QQQ.pdb
     RDKit          3D

 28 27  0  0  1  0  0  0  0  0999 V2000
    9.3383  -11.9247   19.2259 N   0  0  0  0  0  0  0  0  0  0  0  0
    8.8052  -12.9639   18.4330 C   0  0  0  0  0  0  0  0  0  0  0  0
    9.4027  -13.3457   17.4222 O   0  0  0  0  0  0  0  0  0  0  0  0
    7.5098  -13.5847   18.8452 C   0  0  0  0  0  0  0  0  0  0  0  0
    7.6329  -14.1129   20.2486 C   0  0  0  0  0  0  0  0  0  0  0  0
    7.5359  -15.6128   20.3343 C   0  0  2  0  0  0  0  0  0  0  0  0
    6.1491  -16.0159   20.0975 N   0  0  0  0  0  0  0  0  0  0  0  0
    7.9905  -16.0618   21.6653 C   0  0  0  0  0  0  0  0  0  0  0  0
    7.1892  -15.9877   22.6287 O   0  0  0  0  0  0  0  0  0  0  0  0
   13.1126  -19.7281   23.1457 N   0  0  0  0  0  0  0  0  0  0  0  0
   12.5893  -19.3226   24.4109 C   0  0  0  0  0  0  0  0  0  0  0  0
   13.1675  -19.7159   25.4220 O   0  0  0  0  0  0  0  0  0  0  0  0
   11.4164  -18.4792   24.4111 C   0  0  0  0  0  0  0  0  0  0  0  0
   10.8900  -17.9243   23.1556 C   0  0  0  0  0  0  0  0  0  0  0  0
    9.7258  -16.9981   23.2091 C   0  0  2  0  0  0  0  0  0  0  0  0
    9.2872  -16.5728   21.9100 N   0  0  0  0  0  0  0  0  0  0  0  0
    9.7920  -15.9374   24.2282 C   0  0  0  0  0  0  0  0  0  0  0  0
   10.5297  -14.9339   23.9938 O   0  0  0  0  0  0  0  0  0  0  0  0
    5.4152  -12.7932   26.7250 N   0  0  0  0  0  0  0  0  0  0  0  0
    6.5124  -12.2347   27.4253 C   0  0  0  0  0  0  0  0  0  0  0  0
    6.3676  -11.1682   28.0285 O   0  0  0  0  0  0  0  0  0  0  0  0
    7.7924  -12.9755   27.3915 C   0  0  0  0  0  0  0  0  0  0  0  0
    7.8722  -14.0497   26.3652 C   0  0  0  0  0  0  0  0  0  0  0  0
    9.1816  -14.7817   26.3881 C   0  0  2  0  0  0  0  0  0  0  0  0
    9.0969  -15.9358   25.4654 N   0  0  0  0  0  0  0  0  0  0  0  0
    9.5365  -15.2468   27.7447 C   0  0  0  0  0  0  0  0  0  0  0  0
    9.6015  -14.5334   28.7676 O   0  0  0  0  0  0  0  0  0  0  0  0
    9.8290  -16.5969   27.9252 O   0  0  0  0  0  0  0  0  0  0  0  0
  2  1  1  0
  2  3  2  0
  4  2  1  0
  5  4  1  0
  6  7  1  1
  6  5  1  0
  8  6  1  0
  9  8  2  0
 11 10  1  0
 11 12  2  0
 13 14  1  0
 13 11  1  0
 15 14  1  6
 15 16  1  0
 16  8  1  0
 17 15  1  0
 17 18  2  0
 19 20  1  0
 20 22  1  0
 20 21  2  0
 22 23  1  0
 24 23  1  1
 24 25  1  0
 25 17  1  0
 26 24  1  0
 27 26  2  0
 28 26  1  0
M  END
$$$$
