QQQ.pdb
     RDKit          3D

 28 27  0  0  1  0  0  0  0  0999 V2000
   16.9979  -13.3471   16.4469 N   0  0  0  0  0  0  0  0  0  0  0  0
   15.8926  -13.9780   15.8359 C   0  0  0  0  0  0  0  0  0  0  0  0
   15.7274  -13.9003   14.6148 O   0  0  0  0  0  0  0  0  0  0  0  0
   14.9358  -14.7358   16.6981 C   0  0  0  0  0  0  0  0  0  0  0  0
   15.4172  -14.7077   18.1233 C   0  0  0  0  0  0  0  0  0  0  0  0
   14.6087  -15.5808   19.0455 C   0  0  2  0  0  0  0  0  0  0  0  0
   14.3068  -16.8417   18.3667 N   0  0  0  0  0  0  0  0  0  0  0  0
   13.3652  -14.8807   19.4243 C   0  0  0  0  0  0  0  0  0  0  0  0
   13.4490  -13.8626   20.1537 O   0  0  0  0  0  0  0  0  0  0  0  0
    8.3535  -12.5517   17.8902 N   0  0  0  0  0  0  0  0  0  0  0  0
    7.7426  -13.2869   18.9510 C   0  0  0  0  0  0  0  0  0  0  0  0
    6.7092  -12.8345   19.4398 O   0  0  0  0  0  0  0  0  0  0  0  0
    8.3842  -14.5102   19.3739 C   0  0  0  0  0  0  0  0  0  0  0  0
    9.6810  -14.9121   18.8098 C   0  0  0  0  0  0  0  0  0  0  0  0
   10.8764  -14.9362   19.6967 C   0  0  2  0  0  0  0  0  0  0  0  0
   12.0805  -15.3008   19.0053 N   0  0  0  0  0  0  0  0  0  0  0  0
   10.6906  -15.5709   21.0121 C   0  0  0  0  0  0  0  0  0  0  0  0
    9.7704  -15.1261   21.7615 O   0  0  0  0  0  0  0  0  0  0  0  0
   13.0436  -21.0438   23.2798 N   0  0  0  0  0  0  0  0  0  0  0  0
   12.2301  -20.6038   24.3526 C   0  0  0  0  0  0  0  0  0  0  0  0
   12.1334  -21.3007   25.3661 O   0  0  0  0  0  0  0  0  0  0  0  0
   11.5297  -19.3107   24.1926 C   0  0  0  0  0  0  0  0  0  0  0  0
   11.7613  -18.6249   22.8927 C   0  0  0  0  0  0  0  0  0  0  0  0
   11.1347  -17.2631   22.8323 C   0  0  2  0  0  0  0  0  0  0  0  0
   11.4578  -16.6490   21.5250 N   0  0  0  0  0  0  0  0  0  0  0  0
   11.5979  -16.3872   23.9281 C   0  0  0  0  0  0  0  0  0  0  0  0
   12.5829  -15.6208   23.8836 O   0  0  0  0  0  0  0  0  0  0  0  0
   10.8901  -16.3989   25.1280 O   0  0  0  0  0  0  0  0  0  0  0  0
  2  1  1  0
  2  3  2  0
  4  2  1  0
  5  4  1  0
  6  7  1  6
  6  5  1  0
  8  6  1  0
  9  8  2  0
 11 10  1  0
 11 12  2  0
 13 14  1  0
 13 11  1  0
 15 14  1  6
 15 16  1  0
 16  8  1  0
 17 15  1  0
 17 18  2  0
 19 20  1  0
 20 22  1  0
 20 21  2  0
 22 23  1  0
 24 23  1  6
 24 25  1  0
 25 17  1  0
 26 24  1  0
 27 26  2  0
 28 26  1  0
M  END
$$$$
