KFY.pdb
     RDKit          3D

 33 34  0  0  1  0  0  0  0  0999 V2000
    9.4487  -16.7078   17.9547 N   0  0  0  0  0  0  0  0  0  0  0  0
    9.2650  -17.3893   19.2100 C   0  0  1  0  0  0  0  0  0  0  0  0
   10.2296  -18.5569   19.3651 C   0  0  0  0  0  0  0  0  0  0  0  0
   10.1029  -19.4756   18.2154 C   0  0  0  0  0  0  0  0  0  0  0  0
    9.1681  -20.6175   18.3666 C   0  0  0  0  0  0  0  0  0  0  0  0
    9.0876  -21.5629   17.2200 C   0  0  0  0  0  0  0  0  0  0  0  0
    8.1064  -22.6140   17.4125 N   0  0  0  0  0  0  0  0  0  0  0  0
    9.3752  -16.4275   20.3173 C   0  0  0  0  0  0  0  0  0  0  0  0
   10.4631  -15.8232   20.5292 O   0  0  0  0  0  0  0  0  0  0  0  0
    8.3032  -16.1287   21.1869 N   0  0  0  0  0  0  0  0  0  0  0  0
    8.4761  -15.2588   22.3716 C   0  0  1  0  0  0  0  0  0  0  0  0
    7.1161  -14.7664   22.6890 C   0  0  0  0  0  0  0  0  0  0  0  0
    6.9065  -14.0110   23.9049 C   0  0  0  0  0  0  0  0  0  0  0  0
    6.3009  -14.5191   25.0466 C   0  0  0  0  0  0  0  0  0  0  0  0
    6.1286  -13.7979   26.1870 C   0  0  0  0  0  0  0  0  0  0  0  0
    6.5577  -12.5085   26.2536 C   0  0  0  0  0  0  0  0  0  0  0  0
    7.1669  -11.9511   25.1488 C   0  0  0  0  0  0  0  0  0  0  0  0
    7.3388  -12.7029   23.9807 C   0  0  0  0  0  0  0  0  0  0  0  0
    9.1346  -16.0757   23.4025 C   0  0  0  0  0  0  0  0  0  0  0  0
    8.6501  -17.2132   23.6882 O   0  0  0  0  0  0  0  0  0  0  0  0
   11.4730  -16.1539   31.7626 O   0  0  0  0  0  0  0  0  0  0  0  0
   11.3120  -15.8363   30.4044 C   0  0  0  0  0  0  0  0  0  0  0  0
   11.8081  -16.6812   29.4494 C   0  0  0  0  0  0  0  0  0  0  0  0
   11.6419  -16.3552   28.1057 C   0  0  0  0  0  0  0  0  0  0  0  0
   10.9883  -15.2002   27.7307 C   0  0  0  0  0  0  0  0  0  0  0  0
   10.8322  -14.8909   26.3049 C   0  0  0  0  0  0  0  0  0  0  0  0
   10.5576  -16.1569   25.4801 C   0  0  2  0  0  0  0  0  0  0  0  0
   10.3024  -15.6966   24.1289 N   0  0  0  0  0  0  0  0  0  0  0  0
    9.4307  -16.9040   26.0746 C   0  0  0  0  0  0  0  0  0  0  0  0
    9.6916  -18.1433   26.6334 O   0  0  0  0  0  0  0  0  0  0  0  0
   10.4847  -14.3424   28.6846 C   0  0  0  0  0  0  0  0  0  0  0  0
   10.6621  -14.6874   30.0125 C   0  0  0  0  0  0  0  0  0  0  0  0
    8.2561  -16.4682   26.0954 O   0  0  0  0  0  0  0  0  0  0  0  0
  2  1  1  6
  3  2  1  0
  3  4  1  0
  5  4  1  0
  5  6  1  0
  7  6  1  0
  8  2  1  0
  8  9  2  0
 10  8  1  0
 11 10  1  0
 11 12  1  1
 13 12  1  0
 13 14  2  0
 15 14  1  0
 16 15  2  0
 17 18  2  0
 17 16  1  0
 18 13  1  0
 19 11  1  0
 20 19  2  0
 21 22  1  0
 22 23  2  0
 23 24  1  0
 25 24  2  0
 25 26  1  0
 27 28  1  0
 27 26  1  1
 28 19  1  0
 29 27  1  0
 30 29  1  0
 31 25  1  0
 32 22  1  0
 32 31  2  0
 33 29  2  0
M  END
$$$$
