KFY.pdb
     RDKit          3D

 33 34  0  0  1  0  0  0  0  0999 V2000
    8.2124  -18.2277   19.2759 N   0  0  0  0  0  0  0  0  0  0  0  0
    9.4244  -17.4632   19.1328 C   0  0  1  0  0  0  0  0  0  0  0  0
    9.6063  -16.9544   17.7095 C   0  0  0  0  0  0  0  0  0  0  0  0
    9.1676  -17.9822   16.7436 C   0  0  0  0  0  0  0  0  0  0  0  0
   10.2200  -18.6191   15.9145 C   0  0  0  0  0  0  0  0  0  0  0  0
    9.7513  -19.5354   14.8395 C   0  0  0  0  0  0  0  0  0  0  0  0
   10.8241  -20.0178   13.9904 N   0  0  0  0  0  0  0  0  0  0  0  0
    9.4418  -16.3719   20.1187 C   0  0  0  0  0  0  0  0  0  0  0  0
   10.3780  -15.5250   20.1139 O   0  0  0  0  0  0  0  0  0  0  0  0
    8.4424  -16.2078   21.1031 N   0  0  0  0  0  0  0  0  0  0  0  0
    8.5985  -15.2558   22.2253 C   0  0  1  0  0  0  0  0  0  0  0  0
    7.2233  -14.8103   22.5461 C   0  0  0  0  0  0  0  0  0  0  0  0
    7.0066  -13.9729   23.7057 C   0  0  0  0  0  0  0  0  0  0  0  0
    7.3775  -12.6370   23.7858 C   0  0  0  0  0  0  0  0  0  0  0  0
    7.1492  -11.8607   24.8792 C   0  0  0  0  0  0  0  0  0  0  0  0
    6.5281  -12.3818   25.9718 C   0  0  0  0  0  0  0  0  0  0  0  0
    6.1371  -13.7044   25.9484 C   0  0  0  0  0  0  0  0  0  0  0  0
    6.3773  -14.4936   24.8177 C   0  0  0  0  0  0  0  0  0  0  0  0
    9.3205  -15.9714   23.2885 C   0  0  0  0  0  0  0  0  0  0  0  0
    9.0960  -17.2086   23.4590 O   0  0  0  0  0  0  0  0  0  0  0  0
   11.3120  -16.6308   31.7259 O   0  0  0  0  0  0  0  0  0  0  0  0
   11.1807  -16.1729   30.4050 C   0  0  0  0  0  0  0  0  0  0  0  0
   11.9075  -16.7658   29.4089 C   0  0  0  0  0  0  0  0  0  0  0  0
   11.7684  -16.3025   28.1029 C   0  0  0  0  0  0  0  0  0  0  0  0
   10.9137  -15.2620   27.8056 C   0  0  0  0  0  0  0  0  0  0  0  0
   10.7936  -14.8021   26.4174 C   0  0  0  0  0  0  0  0  0  0  0  0
   10.6211  -15.9792   25.4464 C   0  0  2  0  0  0  0  0  0  0  0  0
   10.2788  -15.3859   24.1682 N   0  0  0  0  0  0  0  0  0  0  0  0
    9.5937  -16.9055   25.9640 C   0  0  0  0  0  0  0  0  0  0  0  0
    9.9983  -18.1620   26.3809 O   0  0  0  0  0  0  0  0  0  0  0  0
   10.1770  -14.6580   28.8015 C   0  0  0  0  0  0  0  0  0  0  0  0
   10.3320  -15.1352   30.0906 C   0  0  0  0  0  0  0  0  0  0  0  0
    8.3796  -16.6061   26.0420 O   0  0  0  0  0  0  0  0  0  0  0  0
  2  1  1  6
  3  2  1  0
  3  4  1  0
  5  4  1  0
  5  6  1  0
  7  6  1  0
  8  2  1  0
  8  9  2  0
 10  8  1  0
 11 10  1  0
 11 12  1  1
 13 12  1  0
 13 14  2  0
 15 14  1  0
 16 15  2  0
 17 18  2  0
 17 16  1  0
 18 13  1  0
 19 11  1  0
 20 19  2  0
 21 22  1  0
 22 23  2  0
 23 24  1  0
 25 24  2  0
 25 26  1  0
 27 28  1  0
 27 26  1  1
 28 19  1  0
 29 27  1  0
 30 29  1  0
 31 25  1  0
 32 22  1  0
 32 31  2  0
 33 29  2  0
M  END
$$$$
