KFY.pdb
     RDKit          3D

 33 34  0  0  1  0  0  0  0  0999 V2000
    9.4976  -16.4752   17.9504 N   0  0  0  0  0  0  0  0  0  0  0  0
    8.8582  -17.0349   19.1130 C   0  0  1  0  0  0  0  0  0  0  0  0
    9.2591  -18.4869   19.3339 C   0  0  0  0  0  0  0  0  0  0  0  0
    8.3090  -19.3854   18.6470 C   0  0  0  0  0  0  0  0  0  0  0  0
    6.9276  -19.4418   19.1847 C   0  0  0  0  0  0  0  0  0  0  0  0
    6.4866  -20.7503   19.7400 C   0  0  0  0  0  0  0  0  0  0  0  0
    6.2610  -21.7578   18.7209 N   0  0  0  0  0  0  0  0  0  0  0  0
    9.1420  -16.1960   20.2873 C   0  0  0  0  0  0  0  0  0  0  0  0
   10.3185  -15.8003   20.5171 O   0  0  0  0  0  0  0  0  0  0  0  0
    8.1461  -15.7927   21.2040 N   0  0  0  0  0  0  0  0  0  0  0  0
    8.4531  -14.9189   22.3582 C   0  0  1  0  0  0  0  0  0  0  0  0
    7.1488  -14.3495   22.7673 C   0  0  0  0  0  0  0  0  0  0  0  0
    7.0574  -13.6240   24.0157 C   0  0  0  0  0  0  0  0  0  0  0  0
    6.5806  -14.1661   25.2019 C   0  0  0  0  0  0  0  0  0  0  0  0
    6.5188  -13.4728   26.3705 C   0  0  0  0  0  0  0  0  0  0  0  0
    6.9359  -12.1788   26.4223 C   0  0  0  0  0  0  0  0  0  0  0  0
    7.4194  -11.5882   25.2734 C   0  0  0  0  0  0  0  0  0  0  0  0
    7.4784  -12.3115   24.0766 C   0  0  0  0  0  0  0  0  0  0  0  0
    9.1424  -15.7576   23.3509 C   0  0  0  0  0  0  0  0  0  0  0  0
    8.7080  -16.9287   23.5743 O   0  0  0  0  0  0  0  0  0  0  0  0
   11.3428  -16.4227   31.7205 O   0  0  0  0  0  0  0  0  0  0  0  0
   11.1580  -16.0112   30.3908 C   0  0  0  0  0  0  0  0  0  0  0  0
   10.4834  -14.8497   30.1304 C   0  0  0  0  0  0  0  0  0  0  0  0
   10.3068  -14.4523   28.8073 C   0  0  0  0  0  0  0  0  0  0  0  0
   10.8002  -15.2102   27.7663 C   0  0  0  0  0  0  0  0  0  0  0  0
   10.5947  -14.7585   26.3854 C   0  0  0  0  0  0  0  0  0  0  0  0
   10.5965  -15.9369   25.4006 C   0  0  2  0  0  0  0  0  0  0  0  0
   10.2883  -15.3647   24.1043 N   0  0  0  0  0  0  0  0  0  0  0  0
    9.6256  -16.9579   25.8438 C   0  0  0  0  0  0  0  0  0  0  0  0
    8.2840  -16.6176   25.8639 O   0  0  0  0  0  0  0  0  0  0  0  0
   11.4812  -16.3817   28.0176 C   0  0  0  0  0  0  0  0  0  0  0  0
   11.6440  -16.7558   29.3395 C   0  0  0  0  0  0  0  0  0  0  0  0
    9.9607  -18.1115   26.2002 O   0  0  0  0  0  0  0  0  0  0  0  0
  2  1  1  6
  3  2  1  0
  3  4  1  0
  5  4  1  0
  5  6  1  0
  7  6  1  0
  8  2  1  0
  8  9  2  0
 10  8  1  0
 11 10  1  0
 11 12  1  1
 13 12  1  0
 13 14  2  0
 15 14  1  0
 16 15  2  0
 17 18  2  0
 17 16  1  0
 18 13  1  0
 19 11  1  0
 20 19  2  0
 21 22  1  0
 22 23  2  0
 23 24  1  0
 25 24  2  0
 25 26  1  0
 27 28  1  0
 27 26  1  1
 28 19  1  0
 29 27  1  0
 30 29  1  0
 31 25  1  0
 32 22  1  0
 32 31  2  0
 33 29  2  0
M  END
$$$$
