KFY.pdb
     RDKit          3D

 33 34  0  0  1  0  0  0  0  0999 V2000
   10.3065  -16.3877   19.8971 N   0  0  0  0  0  0  0  0  0  0  0  0
    9.7935  -17.0177   21.0861 C   0  0  1  0  0  0  0  0  0  0  0  0
   10.5541  -18.2929   21.4225 C   0  0  0  0  0  0  0  0  0  0  0  0
   10.1857  -19.3673   20.4782 C   0  0  0  0  0  0  0  0  0  0  0  0
   10.1741  -20.7531   21.0073 C   0  0  0  0  0  0  0  0  0  0  0  0
    9.7552  -21.8202   20.0581 C   0  0  0  0  0  0  0  0  0  0  0  0
   10.8726  -22.4811   19.4104 N   0  0  0  0  0  0  0  0  0  0  0  0
    9.8013  -16.0567   22.1995 C   0  0  0  0  0  0  0  0  0  0  0  0
   10.8369  -15.3788   22.4475 O   0  0  0  0  0  0  0  0  0  0  0  0
    8.6843  -15.8386   23.0359 N   0  0  0  0  0  0  0  0  0  0  0  0
    8.7342  -14.8994   24.1784 C   0  0  1  0  0  0  0  0  0  0  0  0
    7.3322  -14.4701   24.3851 C   0  0  0  0  0  0  0  0  0  0  0  0
    7.0177  -13.6049   25.5011 C   0  0  0  0  0  0  0  0  0  0  0  0
    7.3448  -12.2566   25.5617 C   0  0  0  0  0  0  0  0  0  0  0  0
    7.0247  -11.4549   26.6128 C   0  0  0  0  0  0  0  0  0  0  0  0
    6.3494  -11.9612   27.6799 C   0  0  0  0  0  0  0  0  0  0  0  0
    5.9982  -13.2951   27.6743 C   0  0  0  0  0  0  0  0  0  0  0  0
    6.3330  -14.1105   26.5870 C   0  0  0  0  0  0  0  0  0  0  0  0
    9.3693  -15.6220   25.2913 C   0  0  0  0  0  0  0  0  0  0  0  0
    9.0789  -16.8432   25.4769 O   0  0  0  0  0  0  0  0  0  0  0  0
   14.7980  -18.4620   23.1277 O   0  0  0  0  0  0  0  0  0  0  0  0
   14.1896  -17.7472   24.1720 C   0  0  0  0  0  0  0  0  0  0  0  0
   13.6711  -16.5048   23.9281 C   0  0  0  0  0  0  0  0  0  0  0  0
   13.0701  -15.8060   24.9722 C   0  0  0  0  0  0  0  0  0  0  0  0
   12.9927  -16.3482   26.2378 C   0  0  0  0  0  0  0  0  0  0  0  0
   12.3514  -15.5817   27.3122 C   0  0  0  0  0  0  0  0  0  0  0  0
   10.8321  -15.8048   27.3345 C   0  0  2  0  0  0  0  0  0  0  0  0
   10.3101  -15.0604   26.2048 N   0  0  0  0  0  0  0  0  0  0  0  0
   10.2838  -15.3701   28.6352 C   0  0  0  0  0  0  0  0  0  0  0  0
   10.6448  -16.0817   29.7663 O   0  0  0  0  0  0  0  0  0  0  0  0
   13.5117  -17.5989   26.4941 C   0  0  0  0  0  0  0  0  0  0  0  0
   14.1037  -18.2736   25.4414 C   0  0  0  0  0  0  0  0  0  0  0  0
    9.5111  -14.3916   28.7592 O   0  0  0  0  0  0  0  0  0  0  0  0
  2  1  1  6
  3  2  1  0
  3  4  1  0
  5  4  1  0
  5  6  1  0
  7  6  1  0
  8  2  1  0
  8  9  2  0
 10  8  1  0
 11 10  1  0
 11 12  1  1
 13 12  1  0
 13 14  2  0
 15 14  1  0
 16 15  2  0
 17 18  2  0
 17 16  1  0
 18 13  1  0
 19 11  1  0
 20 19  2  0
 21 22  1  0
 22 23  2  0
 23 24  1  0
 25 24  2  0
 25 26  1  0
 27 28  1  0
 27 26  1  1
 28 19  1  0
 29 27  1  0
 30 29  1  0
 31 25  1  0
 32 22  1  0
 32 31  2  0
 33 29  2  0
M  END
$$$$
