QPD.pdb
     RDKit          3D

 25 25  0  0  1  0  0  0  0  0999 V2000
    7.9967  -18.2280   18.1633 N   0  0  0  0  0  0  0  0  0  0  0  0
    9.0120  -18.4731   17.2069 C   0  0  0  0  0  0  0  0  0  0  0  0
    9.7990  -19.4219   17.3933 O   0  0  0  0  0  0  0  0  0  0  0  0
    9.1270  -17.6158   16.0146 C   0  0  0  0  0  0  0  0  0  0  0  0
    8.2131  -16.4481   15.9659 C   0  0  0  0  0  0  0  0  0  0  0  0
    8.8906  -15.1054   15.8054 C   0  0  2  0  0  0  0  0  0  0  0  0
    9.7860  -15.0740   14.7049 N   0  0  0  0  0  0  0  0  0  0  0  0
    9.5271  -14.7277   17.0743 C   0  0  0  0  0  0  0  0  0  0  0  0
   10.7106  -15.1170   17.2556 O   0  0  0  0  0  0  0  0  0  0  0  0
    8.8935  -13.9454   18.1200 N   0  0  0  0  0  0  0  0  0  0  0  0
    7.5532  -13.4612   18.1623 C   0  0  0  0  0  0  0  0  0  0  0  0
    7.2185  -13.3629   19.6359 C   0  0  0  0  0  0  0  0  0  0  0  0
    8.5529  -12.8971   20.1870 C   0  0  0  0  0  0  0  0  0  0  0  0
    9.5842  -13.5330   19.3171 C   0  0  1  0  0  0  0  0  0  0  0  0
   10.1227  -14.7136   20.0685 C   0  0  0  0  0  0  0  0  0  0  0  0
    9.4902  -15.7899   19.9735 O   0  0  0  0  0  0  0  0  0  0  0  0
   11.2783  -14.6711   20.8572 N   0  0  0  0  0  0  0  0  0  0  0  0
   11.8155  -15.7763   21.6229 C   0  0  1  0  0  0  0  0  0  0  0  0
   13.2731  -15.4999   21.8825 C   0  0  0  0  0  0  0  0  0  0  0  0
   14.0736  -15.3050   20.6535 C   0  0  0  0  0  0  0  0  0  0  0  0
   14.5597  -14.1834   20.3694 O   0  0  0  0  0  0  0  0  0  0  0  0
   11.1093  -15.9403   22.9172 C   0  0  0  0  0  0  0  0  0  0  0  0
   10.3629  -15.0203   23.3145 O   0  0  0  0  0  0  0  0  0  0  0  0
   14.3139  -16.3598   19.7718 O   0  0  0  0  0  0  0  0  0  0  0  0
   11.2494  -17.0721   23.6943 O   0  0  0  0  0  0  0  0  0  0  0  0
  2  4  1  0
  2  1  1  0
  3  2  2  0
  5  6  1  0
  5  4  1  0
  6  8  1  0
  6  7  1  6
  8 10  1  0
  9  8  2  0
 10 14  1  0
 10 11  1  0
 11 12  1  0
 13 12  1  0
 14 13  1  0
 14 15  1  1
 15 17  1  0
 16 15  2  0
 18 17  1  0
 18 22  1  0
 18 19  1  1
 20 19  1  0
 21 20  2  0
 22 23  2  0
 22 25  1  0
 24 20  1  0
M  END
$$$$
