QPD.pdb
     RDKit          3D

 25 25  0  0  1  0  0  0  0  0999 V2000
    6.5797  -17.9586   17.9655 N   0  0  0  0  0  0  0  0  0  0  0  0
    7.7801  -18.5203   17.4661 C   0  0  0  0  0  0  0  0  0  0  0  0
    8.1205  -19.6556   17.8526 O   0  0  0  0  0  0  0  0  0  0  0  0
    8.6049  -17.7674   16.5056 C   0  0  0  0  0  0  0  0  0  0  0  0
    8.1114  -16.4146   16.1489 C   0  0  0  0  0  0  0  0  0  0  0  0
    9.1414  -15.3100   16.2311 C   0  0  2  0  0  0  0  0  0  0  0  0
   10.2544  -15.5375   15.3806 N   0  0  0  0  0  0  0  0  0  0  0  0
    9.5236  -15.1058   17.6347 C   0  0  0  0  0  0  0  0  0  0  0  0
   10.5239  -15.7469   18.0513 O   0  0  0  0  0  0  0  0  0  0  0  0
    8.8364  -14.2260   18.5624 N   0  0  0  0  0  0  0  0  0  0  0  0
    7.6871  -13.4189   18.3170 C   0  0  0  0  0  0  0  0  0  0  0  0
    7.0034  -13.2913   19.6620 C   0  0  0  0  0  0  0  0  0  0  0  0
    8.2126  -13.1999   20.5737 C   0  0  0  0  0  0  0  0  0  0  0  0
    9.2589  -14.0457   19.9295 C   0  0  1  0  0  0  0  0  0  0  0  0
    9.2826  -15.3503   20.6682 C   0  0  0  0  0  0  0  0  0  0  0  0
    8.6600  -16.3090   20.1574 O   0  0  0  0  0  0  0  0  0  0  0  0
    9.9555  -15.5447   21.8801 N   0  0  0  0  0  0  0  0  0  0  0  0
   10.6126  -16.7678   22.2909 C   0  0  1  0  0  0  0  0  0  0  0  0
   11.7100  -17.0630   21.3026 C   0  0  0  0  0  0  0  0  0  0  0  0
   12.5028  -18.2685   21.6307 C   0  0  0  0  0  0  0  0  0  0  0  0
   11.9461  -19.3185   22.0340 O   0  0  0  0  0  0  0  0  0  0  0  0
   11.1958  -16.6464   23.6496 C   0  0  0  0  0  0  0  0  0  0  0  0
   11.8267  -15.6080   23.9415 O   0  0  0  0  0  0  0  0  0  0  0  0
   13.8925  -18.2774   21.5027 O   0  0  0  0  0  0  0  0  0  0  0  0
   11.0646  -17.6396   24.5987 O   0  0  0  0  0  0  0  0  0  0  0  0
  2  4  1  0
  2  1  1  0
  3  2  2  0
  5  6  1  0
  5  4  1  0
  6  8  1  0
  6  7  1  6
  8 10  1  0
  9  8  2  0
 10 14  1  0
 10 11  1  0
 11 12  1  0
 13 12  1  0
 14 13  1  0
 14 15  1  1
 15 17  1  0
 16 15  2  0
 18 17  1  0
 18 22  1  0
 18 19  1  6
 20 19  1  0
 21 20  2  0
 22 23  2  0
 22 25  1  0
 24 20  1  0
M  END
$$$$
