QPD.pdb
     RDKit          3D

 25 25  0  0  1  0  0  0  0  0999 V2000
    8.8450  -19.4713   15.8151 N   0  0  0  0  0  0  0  0  0  0  0  0
    8.0881  -18.7454   14.8634 C   0  0  0  0  0  0  0  0  0  0  0  0
    7.6494  -19.3423   13.8605 O   0  0  0  0  0  0  0  0  0  0  0  0
    7.8285  -17.3096   15.0649 C   0  0  0  0  0  0  0  0  0  0  0  0
    8.4019  -16.7144   16.2970 C   0  0  0  0  0  0  0  0  0  0  0  0
    8.9557  -15.3157   16.1400 C   0  0  2  0  0  0  0  0  0  0  0  0
    9.9012  -15.2182   15.0864 N   0  0  0  0  0  0  0  0  0  0  0  0
    9.4847  -14.8551   17.4307 C   0  0  0  0  0  0  0  0  0  0  0  0
   10.6645  -15.1905   17.7147 O   0  0  0  0  0  0  0  0  0  0  0  0
    8.7502  -14.0490   18.3887 N   0  0  0  0  0  0  0  0  0  0  0  0
    7.4513  -13.4800   18.2421 C   0  0  0  0  0  0  0  0  0  0  0  0
    6.9051  -13.3821   19.6510 C   0  0  0  0  0  0  0  0  0  0  0  0
    8.1673  -13.0115   20.4064 C   0  0  0  0  0  0  0  0  0  0  0  0
    9.2768  -13.6998   19.6852 C   0  0  1  0  0  0  0  0  0  0  0  0
    9.6223  -14.9236   20.4797 C   0  0  0  0  0  0  0  0  0  0  0  0
    8.9937  -15.9739   20.2160 O   0  0  0  0  0  0  0  0  0  0  0  0
   10.5965  -14.9481   21.4844 N   0  0  0  0  0  0  0  0  0  0  0  0
   10.9753  -16.1099   22.2611 C   0  0  1  0  0  0  0  0  0  0  0  0
   12.4654  -16.0631   22.4750 C   0  0  0  0  0  0  0  0  0  0  0  0
   12.9803  -17.1473   23.3402 C   0  0  0  0  0  0  0  0  0  0  0  0
   12.3043  -18.1838   23.5496 O   0  0  0  0  0  0  0  0  0  0  0  0
   10.2915  -16.1354   23.5773 C   0  0  0  0  0  0  0  0  0  0  0  0
    9.7923  -15.0768   24.0151 O   0  0  0  0  0  0  0  0  0  0  0  0
   14.2318  -17.0530   23.9506 O   0  0  0  0  0  0  0  0  0  0  0  0
   10.1889  -17.2865   24.3317 O   0  0  0  0  0  0  0  0  0  0  0  0
  2  4  1  0
  2  1  1  0
  3  2  2  0
  5  6  1  0
  5  4  1  0
  6  8  1  0
  6  7  1  6
  8 10  1  0
  9  8  2  0
 10 14  1  0
 10 11  1  0
 11 12  1  0
 13 12  1  0
 14 13  1  0
 14 15  1  1
 15 17  1  0
 16 15  2  0
 18 17  1  0
 18 22  1  0
 18 19  1  1
 20 19  1  0
 21 20  2  0
 22 23  2  0
 22 25  1  0
 24 20  1  0
M  END
$$$$
