QPD.pdb
     RDKit          3D

 25 25  0  0  1  0  0  0  0  0999 V2000
    5.4250  -18.7493   20.6999 N   0  0  0  0  0  0  0  0  0  0  0  0
    6.8177  -18.9813   20.8099 C   0  0  0  0  0  0  0  0  0  0  0  0
    7.2293  -20.1561   20.8788 O   0  0  0  0  0  0  0  0  0  0  0  0
    7.7560  -17.8462   20.8408 C   0  0  0  0  0  0  0  0  0  0  0  0
    7.1438  -16.4973   20.7591 C   0  0  0  0  0  0  0  0  0  0  0  0
    8.1210  -15.3432   20.7824 C   0  0  2  0  0  0  0  0  0  0  0  0
    9.0586  -15.4005   19.7187 N   0  0  0  0  0  0  0  0  0  0  0  0
    8.7566  -15.2716   22.1049 C   0  0  0  0  0  0  0  0  0  0  0  0
    9.8647  -15.8546   22.2361 O   0  0  0  0  0  0  0  0  0  0  0  0
    8.2022  -14.5825   23.2559 N   0  0  0  0  0  0  0  0  0  0  0  0
    6.9928  -13.8312   23.3289 C   0  0  0  0  0  0  0  0  0  0  0  0
    6.5480  -13.9440   24.7719 C   0  0  0  0  0  0  0  0  0  0  0  0
    7.8916  -13.8985   25.4747 C   0  0  0  0  0  0  0  0  0  0  0  0
    8.8470  -14.5691   24.5459 C   0  0  1  0  0  0  0  0  0  0  0  0
    9.0570  -15.9604   25.0638 C   0  0  0  0  0  0  0  0  0  0  0  0
    8.1585  -16.8004   24.8293 O   0  0  0  0  0  0  0  0  0  0  0  0
   10.1891  -16.3587   25.7841 N   0  0  0  0  0  0  0  0  0  0  0  0
   10.4500  -17.6978   26.2689 C   0  0  1  0  0  0  0  0  0  0  0  0
   11.7379  -18.1754   25.6515 C   0  0  0  0  0  0  0  0  0  0  0  0
   12.1871  -19.4946   26.1486 C   0  0  0  0  0  0  0  0  0  0  0  0
   11.4926  -20.1493   26.9635 O   0  0  0  0  0  0  0  0  0  0  0  0
   10.5728  -17.7309   27.7470 C   0  0  0  0  0  0  0  0  0  0  0  0
   10.6764  -16.6499   28.3651 O   0  0  0  0  0  0  0  0  0  0  0  0
   13.3952  -20.0530   25.7286 O   0  0  0  0  0  0  0  0  0  0  0  0
   10.5764  -18.9129   28.4594 O   0  0  0  0  0  0  0  0  0  0  0  0
  2  4  1  0
  2  1  1  0
  3  2  2  0
  5  6  1  0
  5  4  1  0
  6  8  1  0
  6  7  1  6
  8 10  1  0
  9  8  2  0
 10 14  1  0
 10 11  1  0
 11 12  1  0
 13 12  1  0
 14 13  1  0
 14 15  1  1
 15 17  1  0
 16 15  2  0
 18 17  1  0
 18 22  1  0
 18 19  1  6
 20 19  1  0
 21 20  2  0
 22 23  2  0
 22 25  1  0
 24 20  1  0
M  END
$$$$
