QPD.pdb
     RDKit          3D

 25 25  0  0  1  0  0  0  0  0999 V2000
    5.4206  -17.8415   24.3469 N   0  0  0  0  0  0  0  0  0  0  0  0
    6.5080  -18.1447   23.4918 C   0  0  0  0  0  0  0  0  0  0  0  0
    7.0200  -19.2801   23.5477 O   0  0  0  0  0  0  0  0  0  0  0  0
    7.0175  -17.1285   22.5551 C   0  0  0  0  0  0  0  0  0  0  0  0
    6.3742  -15.7940   22.6344 C   0  0  0  0  0  0  0  0  0  0  0  0
    7.3076  -14.6168   22.4591 C   0  0  2  0  0  0  0  0  0  0  0  0
    8.0951  -14.7153   21.2827 N   0  0  0  0  0  0  0  0  0  0  0  0
    8.1126  -14.4498   23.6766 C   0  0  0  0  0  0  0  0  0  0  0  0
    9.2446  -15.0005   23.6904 O   0  0  0  0  0  0  0  0  0  0  0  0
    7.6980  -13.7019   24.8495 N   0  0  0  0  0  0  0  0  0  0  0  0
    6.4784  -12.9913   25.0500 C   0  0  0  0  0  0  0  0  0  0  0  0
    6.2507  -13.0183   26.5468 C   0  0  0  0  0  0  0  0  0  0  0  0
    7.6777  -12.8751   27.0412 C   0  0  0  0  0  0  0  0  0  0  0  0
    8.5198  -13.5745   26.0278 C   0  0  1  0  0  0  0  0  0  0  0  0
    8.8654  -14.9175   26.5979 C   0  0  0  0  0  0  0  0  0  0  0  0
    7.9338  -15.7453   26.7189 O   0  0  0  0  0  0  0  0  0  0  0  0
   10.1567  -15.2841   26.9946 N   0  0  0  0  0  0  0  0  0  0  0  0
   10.5203  -16.5375   27.6216 C   0  0  1  0  0  0  0  0  0  0  0  0
   11.8817  -16.9355   27.1152 C   0  0  0  0  0  0  0  0  0  0  0  0
   12.0729  -16.7035   25.6665 C   0  0  0  0  0  0  0  0  0  0  0  0
   11.4970  -17.4232   24.8148 O   0  0  0  0  0  0  0  0  0  0  0  0
   10.5625  -16.4184   29.0998 C   0  0  0  0  0  0  0  0  0  0  0  0
   10.5083  -15.2799   29.6121 O   0  0  0  0  0  0  0  0  0  0  0  0
   12.8981  -15.6790   25.2006 O   0  0  0  0  0  0  0  0  0  0  0  0
   10.6593  -17.5203   29.9249 O   0  0  0  0  0  0  0  0  0  0  0  0
  2  4  1  0
  2  1  1  0
  3  2  2  0
  5  6  1  0
  5  4  1  0
  6  8  1  0
  6  7  1  6
  8 10  1  0
  9  8  2  0
 10 14  1  0
 10 11  1  0
 11 12  1  0
 13 12  1  0
 14 13  1  0
 14 15  1  1
 15 17  1  0
 16 15  2  0
 18 17  1  0
 18 22  1  0
 18 19  1  6
 20 19  1  0
 21 20  2  0
 22 23  2  0
 22 25  1  0
 24 20  1  0
M  END
$$$$
