QPD.pdb
     RDKit          3D

 25 25  0  0  1  0  0  0  0  0999 V2000
    7.3826  -19.2179   17.1113 N   0  0  0  0  0  0  0  0  0  0  0  0
    8.5557  -19.0789   16.3300 C   0  0  0  0  0  0  0  0  0  0  0  0
    9.2238  -20.0963   16.0601 O   0  0  0  0  0  0  0  0  0  0  0  0
    8.9701  -17.7500   15.8486 C   0  0  0  0  0  0  0  0  0  0  0  0
    8.0985  -16.6167   16.2448 C   0  0  0  0  0  0  0  0  0  0  0  0
    8.6324  -15.2430   15.9049 C   0  0  2  0  0  0  0  0  0  0  0  0
    9.3949  -15.2348   14.7081 N   0  0  0  0  0  0  0  0  0  0  0  0
    9.3687  -14.7090   17.0584 C   0  0  0  0  0  0  0  0  0  0  0  0
   10.6008  -14.9618   17.1140 O   0  0  0  0  0  0  0  0  0  0  0  0
    8.7807  -13.9189   18.1248 N   0  0  0  0  0  0  0  0  0  0  0  0
    7.4314  -13.4748   18.2448 C   0  0  0  0  0  0  0  0  0  0  0  0
    7.1917  -13.3478   19.7346 C   0  0  0  0  0  0  0  0  0  0  0  0
    8.5440  -12.8271   20.1837 C   0  0  0  0  0  0  0  0  0  0  0  0
    9.5355  -13.4542   19.2625 C   0  0  1  0  0  0  0  0  0  0  0  0
   10.1601  -14.5974   20.0048 C   0  0  0  0  0  0  0  0  0  0  0  0
    9.6547  -15.7312   19.8409 O   0  0  0  0  0  0  0  0  0  0  0  0
   11.2619  -14.4608   20.8573 N   0  0  0  0  0  0  0  0  0  0  0  0
   11.9641  -15.5484   21.5057 C   0  0  1  0  0  0  0  0  0  0  0  0
   13.4232  -15.1832   21.5812 C   0  0  0  0  0  0  0  0  0  0  0  0
   14.2503  -16.1693   22.3109 C   0  0  0  0  0  0  0  0  0  0  0  0
   14.0229  -17.4000   22.2166 O   0  0  0  0  0  0  0  0  0  0  0  0
   11.4486  -15.7939   22.8750 C   0  0  0  0  0  0  0  0  0  0  0  0
   11.9127  -16.7527   23.5283 O   0  0  0  0  0  0  0  0  0  0  0  0
   15.3082  -15.7644   23.1261 O   0  0  0  0  0  0  0  0  0  0  0  0
   10.4762  -15.0005   23.4490 O   0  0  0  0  0  0  0  0  0  0  0  0
  2  4  1  0
  2  1  1  0
  3  2  2  0
  5  6  1  0
  5  4  1  0
  6  8  1  0
  6  7  1  6
  8 10  1  0
  9  8  2  0
 10 14  1  0
 10 11  1  0
 11 12  1  0
 13 12  1  0
 14 13  1  0
 14 15  1  1
 15 17  1  0
 16 15  2  0
 18 17  1  0
 18 22  1  0
 18 19  1  1
 20 19  1  0
 21 20  2  0
 22 23  2  0
 22 25  1  0
 24 20  1  0
M  END
$$$$
