QPD.pdb
     RDKit          3D

 25 25  0  0  1  0  0  0  0  0999 V2000
    9.7911  -19.2401   27.3149 N   0  0  0  0  0  0  0  0  0  0  0  0
    9.3596  -18.1180   28.0635 C   0  0  0  0  0  0  0  0  0  0  0  0
    9.5076  -18.1266   29.3014 O   0  0  0  0  0  0  0  0  0  0  0  0
    8.7480  -16.9648   27.3810 C   0  0  0  0  0  0  0  0  0  0  0  0
    8.6835  -17.0475   25.9012 C   0  0  0  0  0  0  0  0  0  0  0  0
    7.2948  -16.9505   25.3098 C   0  0  2  0  0  0  0  0  0  0  0  0
    6.4216  -17.9560   25.7998 N   0  0  0  0  0  0  0  0  0  0  0  0
    7.3909  -16.9378   23.8440 C   0  0  0  0  0  0  0  0  0  0  0  0
    7.5249  -18.0517   23.2727 O   0  0  0  0  0  0  0  0  0  0  0  0
    7.3415  -15.7443   23.0193 N   0  0  0  0  0  0  0  0  0  0  0  0
    6.8640  -14.4499   23.3785 C   0  0  0  0  0  0  0  0  0  0  0  0
    7.6415  -13.4888   22.5039 C   0  0  0  0  0  0  0  0  0  0  0  0
    7.7201  -14.2929   21.2200 C   0  0  0  0  0  0  0  0  0  0  0  0
    7.7939  -15.7194   21.6500 C   0  0  1  0  0  0  0  0  0  0  0  0
    9.2308  -16.1344   21.5441 C   0  0  0  0  0  0  0  0  0  0  0  0
   10.0190  -15.6965   22.4129 O   0  0  0  0  0  0  0  0  0  0  0  0
    9.7250  -16.9733   20.5385 N   0  0  0  0  0  0  0  0  0  0  0  0
   11.0811  -17.4729   20.4504 C   0  0  1  0  0  0  0  0  0  0  0  0
   11.2182  -18.6238   21.4121 C   0  0  0  0  0  0  0  0  0  0  0  0
   12.5792  -19.2018   21.4640 C   0  0  0  0  0  0  0  0  0  0  0  0
   13.5048  -18.7414   20.7524 O   0  0  0  0  0  0  0  0  0  0  0  0
   11.4053  -17.9381   19.0795 C   0  0  0  0  0  0  0  0  0  0  0  0
   10.5083  -18.4855   18.4034 O   0  0  0  0  0  0  0  0  0  0  0  0
   12.8776  -20.2756   22.3039 O   0  0  0  0  0  0  0  0  0  0  0  0
   12.6614  -17.7864   18.5282 O   0  0  0  0  0  0  0  0  0  0  0  0
  2  4  1  0
  2  1  1  0
  3  2  2  0
  5  6  1  0
  5  4  1  0
  6  8  1  0
  6  7  1  6
  8 10  1  0
  9  8  2  0
 10 14  1  0
 10 11  1  0
 11 12  1  0
 13 12  1  0
 14 13  1  0
 14 15  1  1
 15 17  1  0
 16 15  2  0
 18 17  1  0
 18 22  1  0
 18 19  1  1
 20 19  1  0
 21 20  2  0
 22 23  2  0
 22 25  1  0
 24 20  1  0
M  END
$$$$
