IMI.pdb
     RDKit          3D

 25 24  0  0  1  0  0  0  0  0999 V2000
    6.7511  -18.6192   18.5592 C   0  0  0  0  0  0  0  0  0  0  0  0
    6.9370  -17.1326   18.8135 C   0  0  0  0  0  0  0  0  0  0  0  0
    7.6134  -16.8642   20.1401 C   0  0  2  0  0  0  0  0  0  0  0  0
    7.1655  -17.7262   21.2586 C   0  0  0  0  0  0  0  0  0  0  0  0
    7.5287  -15.3690   20.3996 C   0  0  2  0  0  0  0  0  0  0  0  0
    8.2554  -14.7729   19.2587 N   0  0  0  0  0  0  0  0  0  0  0  0
    8.3041  -15.0359   21.6471 C   0  0  0  0  0  0  0  0  0  0  0  0
    9.5385  -15.1391   21.6024 O   0  0  0  0  0  0  0  0  0  0  0  0
    5.6196  -11.6985   26.7173 C   0  0  0  0  0  0  0  0  0  0  0  0
    7.1026  -12.3936   27.4748 S   0  0  0  0  0  0  0  0  0  0  0  0
    8.0447  -13.4314   26.3213 C   0  0  0  0  0  0  0  0  0  0  0  0
    7.4091  -13.5619   24.9954 C   0  0  0  0  0  0  0  0  0  0  0  0
    8.3590  -14.3584   24.0694 C   0  0  2  0  0  0  0  0  0  0  0  0
    7.6391  -14.6182   22.8313 N   0  0  0  0  0  0  0  0  0  0  0  0
    8.8268  -15.5992   24.6547 C   0  0  0  0  0  0  0  0  0  0  0  0
    7.9652  -16.5357   24.8108 O   0  0  0  0  0  0  0  0  0  0  0  0
   13.0157  -18.0778   22.9726 C   0  0  0  0  0  0  0  0  0  0  0  0
   11.6766  -17.8436   23.5944 C   0  0  0  0  0  0  0  0  0  0  0  0
   11.7302  -17.7388   25.0972 C   0  0  2  0  0  0  0  0  0  0  0  0
   12.1476  -19.0665   25.7175 C   0  0  0  0  0  0  0  0  0  0  0  0
   10.4326  -17.2691   25.6619 C   0  0  2  0  0  0  0  0  0  0  0  0
   10.1212  -15.9390   25.0905 N   0  0  0  0  0  0  0  0  0  0  0  0
   10.3801  -17.1838   27.1429 C   0  0  0  0  0  0  0  0  0  0  0  0
   10.2094  -18.3163   27.8936 O   0  0  0  0  0  0  0  0  0  0  0  0
   10.4907  -16.0608   27.7436 O   0  0  0  0  0  0  0  0  0  0  0  0
  1  2  1  0
  3  2  1  0
  3  4  1  1
  5  3  1  0
  5  6  1  6
  7  8  2  0
  7  5  1  0
 10  9  1  0
 11 10  1  0
 12 11  1  0
 13 12  1  1
 13 14  1  0
 14  7  1  0
 15 13  1  0
 15 16  2  0
 18 17  1  0
 18 19  1  0
 19 20  1  1
 21 19  1  0
 21 22  1  6
 22 15  1  0
 23 21  1  0
 24 23  1  0
 25 23  2  0
M  END
$$$$
