IMI.pdb
     RDKit          3D

 25 24  0  0  1  0  0  0  0  0999 V2000
    7.9973  -12.8445   17.9588 C   0  0  0  0  0  0  0  0  0  0  0  0
    8.0341  -14.3053   18.3757 C   0  0  0  0  0  0  0  0  0  0  0  0
    7.4936  -14.5101   19.7741 C   0  0  2  0  0  0  0  0  0  0  0  0
    8.0557  -13.6044   20.8030 C   0  0  0  0  0  0  0  0  0  0  0  0
    7.5974  -15.9933   20.0892 C   0  0  2  0  0  0  0  0  0  0  0  0
    6.6867  -16.6247   19.1109 N   0  0  0  0  0  0  0  0  0  0  0  0
    7.0297  -16.2515   21.4602 C   0  0  0  0  0  0  0  0  0  0  0  0
    5.8206  -16.0390   21.6320 O   0  0  0  0  0  0  0  0  0  0  0  0
    8.3228  -21.1978   25.0108 C   0  0  0  0  0  0  0  0  0  0  0  0
    6.8086  -20.8438   24.0955 S   0  0  0  0  0  0  0  0  0  0  0  0
    6.6762  -19.0938   23.6315 C   0  0  0  0  0  0  0  0  0  0  0  0
    7.5759  -18.2125   24.4014 C   0  0  0  0  0  0  0  0  0  0  0  0
    7.3950  -16.7610   23.8966 C   0  0  2  0  0  0  0  0  0  0  0  0
    7.8554  -16.7223   22.5164 N   0  0  0  0  0  0  0  0  0  0  0  0
    8.1035  -15.7812   24.6959 C   0  0  0  0  0  0  0  0  0  0  0  0
    9.3459  -15.6000   24.4364 O   0  0  0  0  0  0  0  0  0  0  0  0
    6.0927  -11.4133   27.7939 C   0  0  0  0  0  0  0  0  0  0  0  0
    6.5044  -12.7382   27.2372 C   0  0  0  0  0  0  0  0  0  0  0  0
    7.8052  -12.6844   26.4773 C   0  0  2  0  0  0  0  0  0  0  0  0
    7.5843  -12.1623   25.0630 C   0  0  0  0  0  0  0  0  0  0  0  0
    8.4853  -14.0112   26.4575 C   0  0  2  0  0  0  0  0  0  0  0  0
    7.6186  -14.9770   25.7443 N   0  0  0  0  0  0  0  0  0  0  0  0
    8.8322  -14.5650   27.7902 C   0  0  0  0  0  0  0  0  0  0  0  0
    8.3003  -15.7580   28.2014 O   0  0  0  0  0  0  0  0  0  0  0  0
    9.6269  -13.9446   28.5763 O   0  0  0  0  0  0  0  0  0  0  0  0
  1  2  1  0
  3  2  1  0
  3  4  1  1
  5  3  1  0
  5  6  1  6
  7  8  2  0
  7  5  1  0
 10  9  1  0
 11 10  1  0
 12 11  1  0
 13 12  1  1
 13 14  1  0
 14  7  1  0
 15 13  1  0
 15 16  2  0
 18 17  1  0
 18 19  1  0
 19 20  1  6
 21 19  1  0
 21 22  1  1
 22 15  1  0
 23 21  1  0
 24 23  1  0
 25 23  2  0
M  END
$$$$
