IMI.pdb
     RDKit          3D

 25 24  0  0  1  0  0  0  0  0999 V2000
    7.7603  -12.9257   19.3462 C   0  0  0  0  0  0  0  0  0  0  0  0
    7.3511  -14.3478   19.6915 C   0  0  0  0  0  0  0  0  0  0  0  0
    7.3598  -14.5941   21.1844 C   0  0  2  0  0  0  0  0  0  0  0  0
    8.6377  -14.2796   21.8648 C   0  0  0  0  0  0  0  0  0  0  0  0
    6.8302  -15.9997   21.4166 C   0  0  2  0  0  0  0  0  0  0  0  0
    5.4763  -15.9672   20.8244 N   0  0  0  0  0  0  0  0  0  0  0  0
    6.6660  -16.2313   22.8958 C   0  0  0  0  0  0  0  0  0  0  0  0
    5.8679  -15.5060   23.5069 O   0  0  0  0  0  0  0  0  0  0  0  0
    7.5474  -22.0081   26.5634 C   0  0  0  0  0  0  0  0  0  0  0  0
    6.3709  -20.7926   27.1913 S   0  0  0  0  0  0  0  0  0  0  0  0
    6.8197  -19.0955   26.7291 C   0  0  0  0  0  0  0  0  0  0  0  0
    6.9288  -18.8933   25.2710 C   0  0  0  0  0  0  0  0  0  0  0  0
    7.3384  -17.4249   25.0059 C   0  0  2  0  0  0  0  0  0  0  0  0
    7.4023  -17.2473   23.5627 N   0  0  0  0  0  0  0  0  0  0  0  0
    8.6000  -17.0596   25.6189 C   0  0  0  0  0  0  0  0  0  0  0  0
    9.6687  -17.3127   24.9574 O   0  0  0  0  0  0  0  0  0  0  0  0
    9.3604  -13.6631   30.1475 C   0  0  0  0  0  0  0  0  0  0  0  0
    9.3961  -14.9338   29.3610 C   0  0  0  0  0  0  0  0  0  0  0  0
   10.1363  -14.8026   28.0544 C   0  0  2  0  0  0  0  0  0  0  0  0
    9.5125  -13.7171   27.1860 C   0  0  0  0  0  0  0  0  0  0  0  0
   10.1979  -16.1016   27.3249 C   0  0  2  0  0  0  0  0  0  0  0  0
    8.8343  -16.4527   26.8670 N   0  0  0  0  0  0  0  0  0  0  0  0
   10.7553  -17.2378   28.1006 C   0  0  0  0  0  0  0  0  0  0  0  0
   12.0838  -17.2613   28.4318 O   0  0  0  0  0  0  0  0  0  0  0  0
   10.0137  -18.2108   28.4714 O   0  0  0  0  0  0  0  0  0  0  0  0
  1  2  1  0
  3  2  1  0
  3  4  1  6
  5  3  1  0
  5  6  1  6
  7  8  2  0
  7  5  1  0
 10  9  1  0
 11 10  1  0
 12 11  1  0
 13 12  1  6
 13 14  1  0
 14  7  1  0
 15 13  1  0
 15 16  2  0
 18 17  1  0
 18 19  1  0
 19 20  1  6
 21 19  1  0
 21 22  1  1
 22 15  1  0
 23 21  1  0
 24 23  1  0
 25 23  2  0
M  END
$$$$
