IMI.pdb
     RDKit          3D

 25 24  0  0  1  0  0  0  0  0999 V2000
    7.1012  -13.4225   17.4049 C   0  0  0  0  0  0  0  0  0  0  0  0
    7.9851  -14.3100   18.2654 C   0  0  0  0  0  0  0  0  0  0  0  0
    7.4666  -14.4242   19.6823 C   0  0  2  0  0  0  0  0  0  0  0  0
    7.1928  -13.1335   20.3562 C   0  0  0  0  0  0  0  0  0  0  0  0
    8.3967  -15.3632   20.4328 C   0  0  2  0  0  0  0  0  0  0  0  0
    8.1791  -16.6704   19.7780 N   0  0  0  0  0  0  0  0  0  0  0  0
    7.9280  -15.4933   21.8582 C   0  0  0  0  0  0  0  0  0  0  0  0
    7.9279  -14.4713   22.5598 O   0  0  0  0  0  0  0  0  0  0  0  0
    6.8349  -21.4596   24.6691 C   0  0  0  0  0  0  0  0  0  0  0  0
    6.6988  -20.3018   26.0465 S   0  0  0  0  0  0  0  0  0  0  0  0
    6.6590  -18.5733   25.4932 C   0  0  0  0  0  0  0  0  0  0  0  0
    7.0278  -18.4023   24.0743 C   0  0  0  0  0  0  0  0  0  0  0  0
    7.0152  -16.8915   23.7401 C   0  0  2  0  0  0  0  0  0  0  0  0
    7.5015  -16.7460   22.3759 N   0  0  0  0  0  0  0  0  0  0  0  0
    7.8120  -16.0938   24.6510 C   0  0  0  0  0  0  0  0  0  0  0  0
    9.0800  -16.0793   24.4627 O   0  0  0  0  0  0  0  0  0  0  0  0
    5.9631  -11.5632   26.8127 C   0  0  0  0  0  0  0  0  0  0  0  0
    6.8780  -12.5709   26.1945 C   0  0  0  0  0  0  0  0  0  0  0  0
    7.6123  -13.4080   27.2106 C   0  0  2  0  0  0  0  0  0  0  0  0
    8.5556  -12.5466   28.0410 C   0  0  0  0  0  0  0  0  0  0  0  0
    8.3450  -14.5360   26.5670 C   0  0  2  0  0  0  0  0  0  0  0  0
    7.3903  -15.3116   25.7425 N   0  0  0  0  0  0  0  0  0  0  0  0
    9.0365  -15.4578   27.5024 C   0  0  0  0  0  0  0  0  0  0  0  0
   10.3354  -15.2237   27.8677 O   0  0  0  0  0  0  0  0  0  0  0  0
    8.4399  -16.4819   27.9817 O   0  0  0  0  0  0  0  0  0  0  0  0
  1  2  1  0
  3  2  1  0
  3  4  1  1
  5  3  1  0
  5  6  1  6
  7  8  2  0
  7  5  1  0
 10  9  1  0
 11 10  1  0
 12 11  1  0
 13 12  1  1
 13 14  1  0
 14  7  1  0
 15 13  1  0
 15 16  2  0
 18 17  1  0
 18 19  1  0
 19 20  1  6
 21 19  1  0
 21 22  1  1
 22 15  1  0
 23 21  1  0
 24 23  1  0
 25 23  2  0
M  END
$$$$
