IMI.pdb
     RDKit          3D

 25 24  0  0  1  0  0  0  0  0999 V2000
   12.3530  -19.0743   19.1637 C   0  0  0  0  0  0  0  0  0  0  0  0
   11.0714  -18.2693   19.3004 C   0  0  0  0  0  0  0  0  0  0  0  0
   11.0388  -17.4681   20.5836 C   0  0  2  0  0  0  0  0  0  0  0  0
   11.4802  -18.2016   21.7927 C   0  0  0  0  0  0  0  0  0  0  0  0
    9.6666  -16.8221   20.6817 C   0  0  2  0  0  0  0  0  0  0  0  0
    9.5903  -15.9743   19.4732 N   0  0  0  0  0  0  0  0  0  0  0  0
    9.6332  -15.9038   21.8751 C   0  0  0  0  0  0  0  0  0  0  0  0
   10.3208  -14.8735   21.8281 O   0  0  0  0  0  0  0  0  0  0  0  0
    6.8003  -12.0625   25.8810 C   0  0  0  0  0  0  0  0  0  0  0  0
    5.7503  -12.8322   24.6314 S   0  0  0  0  0  0  0  0  0  0  0  0
    6.6421  -14.0710   23.6490 C   0  0  0  0  0  0  0  0  0  0  0  0
    7.2056  -15.1685   24.4593 C   0  0  0  0  0  0  0  0  0  0  0  0
    8.7136  -15.2960   24.1365 C   0  0  2  0  0  0  0  0  0  0  0  0
    8.8395  -16.2122   23.0126 N   0  0  0  0  0  0  0  0  0  0  0  0
    9.5056  -15.7576   25.2592 C   0  0  0  0  0  0  0  0  0  0  0  0
    9.7141  -17.0192   25.3508 O   0  0  0  0  0  0  0  0  0  0  0  0
   12.8103  -15.0754   29.9939 C   0  0  0  0  0  0  0  0  0  0  0  0
   11.3366  -15.2750   29.8427 C   0  0  0  0  0  0  0  0  0  0  0  0
   10.7809  -14.6621   28.5825 C   0  0  2  0  0  0  0  0  0  0  0  0
    9.4087  -14.0511   28.8378 C   0  0  0  0  0  0  0  0  0  0  0  0
   10.7270  -15.6512   27.4680 C   0  0  2  0  0  0  0  0  0  0  0  0
   10.0957  -15.0072   26.2935 N   0  0  0  0  0  0  0  0  0  0  0  0
   10.0059  -16.9119   27.7743 C   0  0  0  0  0  0  0  0  0  0  0  0
   10.6916  -18.0051   28.2326 O   0  0  0  0  0  0  0  0  0  0  0  0
    8.7406  -17.0036   27.6166 O   0  0  0  0  0  0  0  0  0  0  0  0
  1  2  1  0
  3  2  1  0
  3  4  1  1
  5  3  1  0
  5  6  1  6
  7  8  2  0
  7  5  1  0
 10  9  1  0
 11 10  1  0
 12 11  1  0
 13 12  1  1
 13 14  1  0
 14  7  1  0
 15 13  1  0
 15 16  2  0
 18 17  1  0
 18 19  1  0
 19 20  1  1
 21 19  1  0
 21 22  1  6
 22 15  1  0
 23 21  1  0
 24 23  1  0
 25 23  2  0
M  END
$$$$
