IMI.pdb
     RDKit          3D

 25 24  0  0  1  0  0  0  0  0999 V2000
   11.7359  -20.0158   19.8279 C   0  0  0  0  0  0  0  0  0  0  0  0
   10.9207  -18.7390   19.7086 C   0  0  0  0  0  0  0  0  0  0  0  0
   10.8440  -17.9900   21.0211 C   0  0  2  0  0  0  0  0  0  0  0  0
   10.6197  -18.8377   22.2151 C   0  0  0  0  0  0  0  0  0  0  0  0
    9.8533  -16.8520   20.8381 C   0  0  2  0  0  0  0  0  0  0  0  0
   10.4811  -16.0026   19.8040 N   0  0  0  0  0  0  0  0  0  0  0  0
    9.7888  -16.0402   22.1052 C   0  0  0  0  0  0  0  0  0  0  0  0
   10.7978  -15.3969   22.4287 O   0  0  0  0  0  0  0  0  0  0  0  0
    6.4112  -11.4647   25.6536 C   0  0  0  0  0  0  0  0  0  0  0  0
    5.6825  -13.1008   25.8739 S   0  0  0  0  0  0  0  0  0  0  0  0
    6.9219  -14.4246   25.7925 C   0  0  0  0  0  0  0  0  0  0  0  0
    7.0371  -15.0397   24.4556 C   0  0  0  0  0  0  0  0  0  0  0  0
    8.5356  -15.2704   24.1463 C   0  0  2  0  0  0  0  0  0  0  0  0
    8.6101  -16.0157   22.8983 N   0  0  0  0  0  0  0  0  0  0  0  0
    9.2393  -15.9735   25.2004 C   0  0  0  0  0  0  0  0  0  0  0  0
    9.3205  -17.2492   25.1019 O   0  0  0  0  0  0  0  0  0  0  0  0
   11.0435  -13.2768   29.5525 C   0  0  0  0  0  0  0  0  0  0  0  0
   11.2263  -14.1585   28.3592 C   0  0  0  0  0  0  0  0  0  0  0  0
   10.7564  -15.5723   28.5884 C   0  0  2  0  0  0  0  0  0  0  0  0
   11.6996  -16.3099   29.5306 C   0  0  0  0  0  0  0  0  0  0  0  0
   10.5961  -16.3130   27.3042 C   0  0  2  0  0  0  0  0  0  0  0  0
    9.8635  -15.4511   26.3487 N   0  0  0  0  0  0  0  0  0  0  0  0
    9.8997  -17.6196   27.4092 C   0  0  0  0  0  0  0  0  0  0  0  0
    8.5376  -17.6668   27.5419 O   0  0  0  0  0  0  0  0  0  0  0  0
   10.5513  -18.7191   27.3799 O   0  0  0  0  0  0  0  0  0  0  0  0
  1  2  1  0
  3  2  1  0
  3  4  1  1
  5  3  1  0
  5  6  1  6
  7  8  2  0
  7  5  1  0
 10  9  1  0
 11 10  1  0
 12 11  1  0
 13 12  1  1
 13 14  1  0
 14  7  1  0
 15 13  1  0
 15 16  2  0
 18 17  1  0
 18 19  1  0
 19 20  1  1
 21 19  1  0
 21 22  1  6
 22 15  1  0
 23 21  1  0
 24 23  1  0
 25 23  2  0
M  END
$$$$
