IMI.pdb
     RDKit          3D

 25 24  0  0  1  0  0  0  0  0999 V2000
    6.2600  -20.4918   27.9991 C   0  0  0  0  0  0  0  0  0  0  0  0
    5.9066  -20.1279   26.5667 C   0  0  0  0  0  0  0  0  0  0  0  0
    6.8799  -19.1300   25.9782 C   0  0  2  0  0  0  0  0  0  0  0  0
    7.1257  -17.9283   26.8091 C   0  0  0  0  0  0  0  0  0  0  0  0
    6.4389  -18.8521   24.5505 C   0  0  2  0  0  0  0  0  0  0  0  0
    6.3517  -20.1964   23.9420 N   0  0  0  0  0  0  0  0  0  0  0  0
    7.5297  -18.1046   23.8295 C   0  0  0  0  0  0  0  0  0  0  0  0
    8.5303  -18.7454   23.4764 O   0  0  0  0  0  0  0  0  0  0  0  0
    6.8369  -12.4770   20.4473 C   0  0  0  0  0  0  0  0  0  0  0  0
    6.3419  -14.1655   20.0476 S   0  0  0  0  0  0  0  0  0  0  0  0
    7.1308  -15.3903   21.1305 C   0  0  0  0  0  0  0  0  0  0  0  0
    7.9457  -14.7872   22.2033 C   0  0  0  0  0  0  0  0  0  0  0  0
    8.5309  -15.9231   23.0759 C   0  0  2  0  0  0  0  0  0  0  0  0
    7.4110  -16.7135   23.5655 N   0  0  0  0  0  0  0  0  0  0  0  0
    9.3356  -15.4431   24.1818 C   0  0  0  0  0  0  0  0  0  0  0  0
    9.3146  -14.1834   24.4192 O   0  0  0  0  0  0  0  0  0  0  0  0
    9.5040  -13.8429   29.3416 C   0  0  0  0  0  0  0  0  0  0  0  0
   10.4911  -14.4175   28.3772 C   0  0  0  0  0  0  0  0  0  0  0  0
    9.8460  -15.0158   27.1532 C   0  0  2  0  0  0  0  0  0  0  0  0
    8.8587  -16.1093   27.5420 C   0  0  0  0  0  0  0  0  0  0  0  0
   10.8631  -15.5306   26.1921 C   0  0  2  0  0  0  0  0  0  0  0  0
   10.1605  -16.1731   25.0580 N   0  0  0  0  0  0  0  0  0  0  0  0
   11.8431  -16.4898   26.7601 C   0  0  0  0  0  0  0  0  0  0  0  0
   11.8810  -17.7836   26.3128 O   0  0  0  0  0  0  0  0  0  0  0  0
   12.6643  -16.1321   27.6722 O   0  0  0  0  0  0  0  0  0  0  0  0
  1  2  1  0
  3  2  1  0
  3  4  1  1
  5  3  1  0
  5  6  1  6
  7  8  2  0
  7  5  1  0
 10  9  1  0
 11 10  1  0
 12 11  1  0
 13 12  1  1
 13 14  1  0
 14  7  1  0
 15 13  1  0
 15 16  2  0
 18 17  1  0
 18 19  1  0
 19 20  1  1
 21 19  1  0
 21 22  1  6
 22 15  1  0
 23 21  1  0
 24 23  1  0
 25 23  2  0
M  END
$$$$
