IMI.pdb
     RDKit          3D

 25 24  0  0  1  0  0  0  0  0999 V2000
    9.7207  -19.5821   18.6803 C   0  0  0  0  0  0  0  0  0  0  0  0
    9.0290  -18.2495   18.9146 C   0  0  0  0  0  0  0  0  0  0  0  0
    9.4191  -17.6331   20.2402 C   0  0  2  0  0  0  0  0  0  0  0  0
    9.5444  -18.5897   21.3644 C   0  0  0  0  0  0  0  0  0  0  0  0
    8.4858  -16.4594   20.4882 C   0  0  2  0  0  0  0  0  0  0  0  0
    8.6952  -15.5894   19.3117 N   0  0  0  0  0  0  0  0  0  0  0  0
    8.9569  -15.6963   21.6983 C   0  0  0  0  0  0  0  0  0  0  0  0
    9.9866  -15.0157   21.5847 O   0  0  0  0  0  0  0  0  0  0  0  0
    6.7250  -11.6675   26.4510 C   0  0  0  0  0  0  0  0  0  0  0  0
    5.8917  -12.1307   24.9189 S   0  0  0  0  0  0  0  0  0  0  0  0
    6.8423  -13.3402   23.9552 C   0  0  0  0  0  0  0  0  0  0  0  0
    7.3652  -14.4571   24.7664 C   0  0  0  0  0  0  0  0  0  0  0  0
    8.6515  -14.9945   24.0949 C   0  0  2  0  0  0  0  0  0  0  0  0
    8.2423  -15.7577   22.9249 N   0  0  0  0  0  0  0  0  0  0  0  0
    9.4625  -15.8113   24.9757 C   0  0  0  0  0  0  0  0  0  0  0  0
    8.9949  -16.9576   25.3087 O   0  0  0  0  0  0  0  0  0  0  0  0
   10.9648  -13.4843   29.9581 C   0  0  0  0  0  0  0  0  0  0  0  0
   10.8186  -14.7826   29.2318 C   0  0  0  0  0  0  0  0  0  0  0  0
   10.5277  -14.6114   27.7626 C   0  0  2  0  0  0  0  0  0  0  0  0
    9.0404  -14.3769   27.5294 C   0  0  0  0  0  0  0  0  0  0  0  0
   11.0173  -15.7732   26.9665 C   0  0  2  0  0  0  0  0  0  0  0  0
   10.7214  -15.5260   25.5368 N   0  0  0  0  0  0  0  0  0  0  0  0
   10.4545  -17.0903   27.3563 C   0  0  0  0  0  0  0  0  0  0  0  0
    9.1902  -17.4432   26.9660 O   0  0  0  0  0  0  0  0  0  0  0  0
   11.1318  -17.9154   28.0597 O   0  0  0  0  0  0  0  0  0  0  0  0
  1  2  1  0
  3  2  1  0
  3  4  1  1
  5  3  1  0
  5  6  1  6
  7  8  2  0
  7  5  1  0
 10  9  1  0
 11 10  1  0
 12 11  1  0
 13 12  1  1
 13 14  1  0
 14  7  1  0
 15 13  1  0
 15 16  2  0
 18 17  1  0
 18 19  1  0
 19 20  1  1
 21 19  1  0
 21 22  1  6
 22 15  1  0
 23 21  1  0
 24 23  1  0
 25 23  2  0
M  END
$$$$
