VLP.pdb
     RDKit          3D

 23 23  0  0  1  0  0  0  0  0999 V2000
   15.1838  -22.5601    3.8074 C   0  0  0  0  0  0  0  0  0  0  0  0
   14.3827  -21.5538    3.0609 C   0  0  2  0  0  0  0  0  0  0  0  0
   13.1279  -22.2496    2.5455 C   0  0  0  0  0  0  0  0  0  0  0  0
   15.0866  -20.9437    1.8895 C   0  0  2  0  0  0  0  0  0  0  0  0
   15.2923  -21.8661    0.8062 N   0  0  0  0  0  0  0  0  0  0  0  0
   16.3507  -20.2849    2.2163 C   0  0  0  0  0  0  0  0  0  0  0  0
   17.4967  -20.7854    2.0871 O   0  0  0  0  0  0  0  0  0  0  0  0
   17.9808  -14.4279    3.1981 C   0  0  0  0  0  0  0  0  0  0  0  0
   18.3304  -15.8918    3.2442 C   0  0  2  0  0  0  0  0  0  0  0  0
   19.4285  -16.1198    2.2255 C   0  0  0  0  0  0  0  0  0  0  0  0
   17.1983  -16.7960    2.8948 C   0  0  0  0  0  0  0  0  0  0  0  0
   17.4974  -18.2631    3.2207 C   0  0  2  0  0  0  0  0  0  0  0  0
   16.3083  -18.9585    2.7279 N   0  0  0  0  0  0  0  0  0  0  0  0
   17.6218  -18.3723    4.6813 C   0  0  0  0  0  0  0  0  0  0  0  0
   16.6308  -18.0250    5.3667 O   0  0  0  0  0  0  0  0  0  0  0  0
   18.7822  -18.8424    5.3357 N   0  0  0  0  0  0  0  0  0  0  0  0
   20.0779  -19.2216    4.8160 C   0  0  0  0  0  0  0  0  0  0  0  0
   20.9902  -18.7432    5.9300 C   0  0  0  0  0  0  0  0  0  0  0  0
   20.2560  -19.3435    7.1326 C   0  0  0  0  0  0  0  0  0  0  0  0
   18.8375  -19.0257    6.7979 C   0  0  1  0  0  0  0  0  0  0  0  0
   18.5263  -17.7070    7.4019 C   0  0  0  0  0  0  0  0  0  0  0  0
   18.3142  -17.5491    8.7534 O   0  0  0  0  0  0  0  0  0  0  0  0
   18.4545  -16.7041    6.6529 O   0  0  0  0  0  0  0  0  0  0  0  0
  2  1  1  6
  2  3  1  0
  4  2  1  0
  4  6  1  0
  4  5  1  6
  6  7  2  0
  9 11  1  0
  9  8  1  6
 10  9  1  0
 12 11  1  1
 12 14  1  0
 13  6  1  0
 13 12  1  0
 14 15  2  0
 16 17  1  0
 16 14  1  0
 18 17  1  0
 19 20  1  0
 19 18  1  0
 20 16  1  0
 21 22  1  0
 20 21  1  1
 23 21  2  0
M  END
$$$$
