VLP.pdb
     RDKit          3D

 23 23  0  0  1  0  0  0  0  0999 V2000
   23.4830  -20.1102  -11.1583 C   0  0  0  0  0  0  0  0  0  0  0  0
   24.4237  -20.6508  -10.1411 C   0  0  2  0  0  0  0  0  0  0  0  0
   23.8551  -20.3259   -8.7644 C   0  0  0  0  0  0  0  0  0  0  0  0
   25.8083  -20.0873  -10.2135 C   0  0  2  0  0  0  0  0  0  0  0  0
   26.4421  -20.2976  -11.4867 N   0  0  0  0  0  0  0  0  0  0  0  0
   26.7017  -20.5319   -9.1443 C   0  0  0  0  0  0  0  0  0  0  0  0
   27.2874  -21.6428   -9.0887 O   0  0  0  0  0  0  0  0  0  0  0  0
   29.4683  -17.4322   -4.5635 C   0  0  0  0  0  0  0  0  0  0  0  0
   29.1501  -18.7540   -5.2105 C   0  0  2  0  0  0  0  0  0  0  0  0
   30.4684  -19.3782   -5.6204 C   0  0  0  0  0  0  0  0  0  0  0  0
   28.3064  -18.6418   -6.4340 C   0  0  0  0  0  0  0  0  0  0  0  0
   27.8045  -20.0031   -6.9273 C   0  0  2  0  0  0  0  0  0  0  0  0
   26.9469  -19.6474   -8.0579 N   0  0  0  0  0  0  0  0  0  0  0  0
   27.0334  -20.6101   -5.8329 C   0  0  0  0  0  0  0  0  0  0  0  0
   25.8928  -20.1399   -5.6084 O   0  0  0  0  0  0  0  0  0  0  0  0
   27.5074  -21.6781   -5.0391 N   0  0  0  0  0  0  0  0  0  0  0  0
   28.7401  -22.4327   -5.1004 C   0  0  0  0  0  0  0  0  0  0  0  0
   29.0010  -22.6853   -3.6272 C   0  0  0  0  0  0  0  0  0  0  0  0
   27.6175  -23.1920   -3.2093 C   0  0  0  0  0  0  0  0  0  0  0  0
   26.7265  -22.2254   -3.9142 C   0  0  1  0  0  0  0  0  0  0  0  0
   26.4761  -21.0970   -2.9843 C   0  0  0  0  0  0  0  0  0  0  0  0
   27.3101  -20.0034   -2.9141 O   0  0  0  0  0  0  0  0  0  0  0  0
   25.4698  -21.1444   -2.2380 O   0  0  0  0  0  0  0  0  0  0  0  0
  2  1  1  6
  2  3  1  0
  4  2  1  0
  4  6  1  0
  4  5  1  6
  6  7  2  0
  9 11  1  0
  9  8  1  6
 10  9  1  0
 12 11  1  1
 12 14  1  0
 13  6  1  0
 13 12  1  0
 14 15  2  0
 16 17  1  0
 16 14  1  0
 18 17  1  0
 19 20  1  0
 19 18  1  0
 20 16  1  0
 21 22  1  0
 20 21  1  1
 23 21  2  0
M  END
$$$$
