VLP.pdb
     RDKit          3D

 23 23  0  0  1  0  0  0  0  0999 V2000
   28.3752  -20.2833  -12.5761 C   0  0  0  0  0  0  0  0  0  0  0  0
   27.1576  -21.1318  -12.6712 C   0  0  2  0  0  0  0  0  0  0  0  0
   26.4231  -20.7474  -13.9507 C   0  0  0  0  0  0  0  0  0  0  0  0
   26.2036  -20.9804  -11.5280 C   0  0  2  0  0  0  0  0  0  0  0  0
   25.5214  -19.7150  -11.5203 N   0  0  0  0  0  0  0  0  0  0  0  0
   26.7900  -21.2268  -10.2110 C   0  0  0  0  0  0  0  0  0  0  0  0
   27.4601  -22.2379   -9.8811 O   0  0  0  0  0  0  0  0  0  0  0  0
   28.2642  -18.2781   -5.0842 C   0  0  0  0  0  0  0  0  0  0  0  0
   27.8326  -19.5472   -5.7699 C   0  0  2  0  0  0  0  0  0  0  0  0
   29.0049  -20.5054   -5.7123 C   0  0  0  0  0  0  0  0  0  0  0  0
   27.4693  -19.3673   -7.2041 C   0  0  0  0  0  0  0  0  0  0  0  0
   26.6984  -20.5653   -7.7686 C   0  0  2  0  0  0  0  0  0  0  0  0
   26.6000  -20.2509   -9.1941 N   0  0  0  0  0  0  0  0  0  0  0  0
   25.3768  -20.5802   -7.1251 C   0  0  0  0  0  0  0  0  0  0  0  0
   24.7146  -19.5158   -7.1553 O   0  0  0  0  0  0  0  0  0  0  0  0
   24.8284  -21.7157   -6.4884 N   0  0  0  0  0  0  0  0  0  0  0  0
   25.3683  -23.0416   -6.2808 C   0  0  0  0  0  0  0  0  0  0  0  0
   24.8000  -23.3773   -4.9146 C   0  0  0  0  0  0  0  0  0  0  0  0
   23.3362  -22.9929   -5.1490 C   0  0  0  0  0  0  0  0  0  0  0  0
   23.4861  -21.7001   -5.8778 C   0  0  1  0  0  0  0  0  0  0  0  0
   23.4958  -20.6192   -4.8619 C   0  0  0  0  0  0  0  0  0  0  0  0
   24.6613  -20.1537   -4.2948 O   0  0  0  0  0  0  0  0  0  0  0  0
   22.4034  -20.1147   -4.5097 O   0  0  0  0  0  0  0  0  0  0  0  0
  2  1  1  1
  2  3  1  0
  4  2  1  0
  4  6  1  0
  4  5  1  1
  6  7  2  0
  9 11  1  0
  9  8  1  6
 10  9  1  0
 12 11  1  1
 12 14  1  0
 13  6  1  0
 13 12  1  0
 14 15  2  0
 16 17  1  0
 16 14  1  0
 18 17  1  0
 19 20  1  0
 19 18  1  0
 20 16  1  0
 21 22  1  0
 20 21  1  1
 23 21  2  0
M  END
$$$$
