VLP.pdb
     RDKit          3D

 23 23  0  0  1  0  0  0  0  0999 V2000
   15.0108  -22.2331    4.0946 C   0  0  0  0  0  0  0  0  0  0  0  0
   14.2221  -21.2538    3.3004 C   0  0  2  0  0  0  0  0  0  0  0  0
   12.9943  -21.9774    2.7589 C   0  0  0  0  0  0  0  0  0  0  0  0
   14.9569  -20.6594    2.1400 C   0  0  2  0  0  0  0  0  0  0  0  0
   15.1839  -21.5940    1.0715 N   0  0  0  0  0  0  0  0  0  0  0  0
   16.2161  -20.0030    2.4901 C   0  0  0  0  0  0  0  0  0  0  0  0
   17.3680  -20.4355    2.2328 O   0  0  0  0  0  0  0  0  0  0  0  0
   17.6949  -14.1635    3.4322 C   0  0  0  0  0  0  0  0  0  0  0  0
   18.0787  -15.6120    3.5802 C   0  0  2  0  0  0  0  0  0  0  0  0
   19.1776  -15.8866    2.5738 C   0  0  0  0  0  0  0  0  0  0  0  0
   16.9666  -16.5645    3.3022 C   0  0  0  0  0  0  0  0  0  0  0  0
   17.3602  -18.0206    3.5728 C   0  0  2  0  0  0  0  0  0  0  0  0
   16.1608  -18.7630    3.1844 N   0  0  0  0  0  0  0  0  0  0  0  0
   17.6297  -18.1427    5.0127 C   0  0  0  0  0  0  0  0  0  0  0  0
   16.7179  -17.7873    5.7968 O   0  0  0  0  0  0  0  0  0  0  0  0
   18.8433  -18.6334    5.5436 N   0  0  0  0  0  0  0  0  0  0  0  0
   20.0496  -19.0916    4.8897 C   0  0  0  0  0  0  0  0  0  0  0  0
   21.1100  -18.6045    5.8595 C   0  0  0  0  0  0  0  0  0  0  0  0
   20.5077  -19.1181    7.1705 C   0  0  0  0  0  0  0  0  0  0  0  0
   19.0718  -18.7539    6.9955 C   0  0  1  0  0  0  0  0  0  0  0  0
   18.8877  -17.3973    7.5669 C   0  0  0  0  0  0  0  0  0  0  0  0
   18.8168  -17.1748    8.9241 O   0  0  0  0  0  0  0  0  0  0  0  0
   18.7936  -16.4225    6.7842 O   0  0  0  0  0  0  0  0  0  0  0  0
  2  1  1  6
  2  3  1  0
  4  2  1  0
  4  6  1  0
  4  5  1  6
  6  7  2  0
  9 11  1  0
  9  8  1  6
 10  9  1  0
 12 11  1  1
 12 14  1  0
 13  6  1  0
 13 12  1  0
 14 15  2  0
 16 17  1  0
 16 14  1  0
 18 17  1  0
 19 20  1  0
 19 18  1  0
 20 16  1  0
 21 22  1  0
 20 21  1  1
 23 21  2  0
M  END
$$$$
