VLP.pdb
     RDKit          3D

 23 23  0  0  1  0  0  0  0  0999 V2000
   25.5221  -16.7551  -17.1171 C   0  0  0  0  0  0  0  0  0  0  0  0
   26.3547  -16.3580  -15.9505 C   0  0  2  0  0  0  0  0  0  0  0  0
   27.0397  -15.0407  -16.2965 C   0  0  0  0  0  0  0  0  0  0  0  0
   27.4153  -17.3463  -15.5788 C   0  0  2  0  0  0  0  0  0  0  0  0
   28.3621  -17.5881  -16.6332 N   0  0  0  0  0  0  0  0  0  0  0  0
   26.9072  -18.6226  -15.0769 C   0  0  0  0  0  0  0  0  0  0  0  0
   26.8077  -19.6868  -15.7387 O   0  0  0  0  0  0  0  0  0  0  0  0
   26.0512  -22.0544  -11.3420 C   0  0  0  0  0  0  0  0  0  0  0  0
   26.3450  -20.6823  -10.7961 C   0  0  2  0  0  0  0  0  0  0  0  0
   25.6572  -20.5819   -9.4498 C   0  0  0  0  0  0  0  0  0  0  0  0
   25.8334  -19.5700  -11.6461 C   0  0  0  0  0  0  0  0  0  0  0  0
   25.8910  -19.9002  -13.1413 C   0  0  2  0  0  0  0  0  0  0  0  0
   26.4808  -18.6938  -13.7220 N   0  0  0  0  0  0  0  0  0  0  0  0
   24.5093  -20.1021  -13.6004 C   0  0  0  0  0  0  0  0  0  0  0  0
   23.6870  -19.1871  -13.3573 O   0  0  0  0  0  0  0  0  0  0  0  0
   24.0737  -21.2552  -14.2904 N   0  0  0  0  0  0  0  0  0  0  0  0
   24.7972  -22.4271  -14.7331 C   0  0  0  0  0  0  0  0  0  0  0  0
   23.7523  -23.5085  -14.5309 C   0  0  0  0  0  0  0  0  0  0  0  0
   22.5582  -22.8364  -15.2150 C   0  0  0  0  0  0  0  0  0  0  0  0
   22.6674  -21.4436  -14.6926 C   0  0  1  0  0  0  0  0  0  0  0  0
   21.8590  -21.3732  -13.4508 C   0  0  0  0  0  0  0  0  0  0  0  0
   20.4966  -21.1725  -13.4709 O   0  0  0  0  0  0  0  0  0  0  0  0
   22.4395  -21.5009  -12.3469 O   0  0  0  0  0  0  0  0  0  0  0  0
  2  1  1  6
  2  3  1  0
  4  2  1  0
  4  6  1  0
  4  5  1  6
  6  7  2  0
  9 11  1  0
  9  8  1  6
 10  9  1  0
 12 11  1  1
 12 14  1  0
 13  6  1  0
 13 12  1  0
 14 15  2  0
 16 17  1  0
 16 14  1  0
 18 17  1  0
 19 20  1  0
 19 18  1  0
 20 16  1  0
 21 22  1  0
 20 21  1  1
 23 21  2  0
M  END
$$$$
