VLP.pdb
     RDKit          3D

 23 23  0  0  1  0  0  0  0  0999 V2000
   15.8286   -7.2137   -8.3353 C   0  0  0  0  0  0  0  0  0  0  0  0
   14.8222   -7.2511   -9.4296 C   0  0  2  0  0  0  0  0  0  0  0  0
   13.7160   -8.2125   -9.0098 C   0  0  0  0  0  0  0  0  0  0  0  0
   15.3566   -7.7105  -10.7499 C   0  0  2  0  0  0  0  0  0  0  0  0
   15.7542   -9.0921  -10.7530 N   0  0  0  0  0  0  0  0  0  0  0  0
   16.4420   -6.8891  -11.2849 C   0  0  0  0  0  0  0  0  0  0  0  0
   16.4793   -5.6326  -11.2926 O   0  0  0  0  0  0  0  0  0  0  0  0
   22.1195   -8.4128  -13.2981 C   0  0  0  0  0  0  0  0  0  0  0  0
   21.0731   -7.3574  -13.0570 C   0  0  2  0  0  0  0  0  0  0  0  0
   21.6441   -6.3875  -12.0425 C   0  0  0  0  0  0  0  0  0  0  0  0
   19.7952   -7.8872  -12.5023 C   0  0  0  0  0  0  0  0  0  0  0  0
   18.6997   -6.8182  -12.4290 C   0  0  2  0  0  0  0  0  0  0  0  0
   17.5685   -7.5456  -11.8532 N   0  0  0  0  0  0  0  0  0  0  0  0
   18.4190   -6.3816  -13.8043 C   0  0  0  0  0  0  0  0  0  0  0  0
   18.3446   -7.2733  -14.6828 O   0  0  0  0  0  0  0  0  0  0  0  0
   18.2313   -5.0314  -14.1746 N   0  0  0  0  0  0  0  0  0  0  0  0
   18.1742   -3.8266  -13.3759 C   0  0  0  0  0  0  0  0  0  0  0  0
   18.8452   -2.8302  -14.3027 C   0  0  0  0  0  0  0  0  0  0  0  0
   18.0777   -3.1301  -15.5936 C   0  0  0  0  0  0  0  0  0  0  0  0
   18.0535   -4.6215  -15.5800 C   0  0  1  0  0  0  0  0  0  0  0  0
   19.2557   -5.0891  -16.3126 C   0  0  0  0  0  0  0  0  0  0  0  0
   19.3579   -5.0104  -17.6837 O   0  0  0  0  0  0  0  0  0  0  0  0
   20.2094   -5.5723  -15.6576 O   0  0  0  0  0  0  0  0  0  0  0  0
  2  1  1  1
  2  3  1  0
  4  2  1  0
  4  6  1  0
  4  5  1  1
  6  7  2  0
  9 11  1  0
  9  8  1  1
 10  9  1  0
 12 11  1  6
 12 14  1  0
 13  6  1  0
 13 12  1  0
 14 15  2  0
 16 17  1  0
 16 14  1  0
 18 17  1  0
 19 20  1  0
 19 18  1  0
 20 16  1  0
 21 22  1  0
 20 21  1  6
 23 21  2  0
M  END
$$$$
