VLP.pdb
     RDKit          3D

 23 23  0  0  1  0  0  0  0  0999 V2000
   23.6244  -21.5631  -10.9642 C   0  0  0  0  0  0  0  0  0  0  0  0
   25.0367  -21.3168  -10.5687 C   0  0  2  0  0  0  0  0  0  0  0  0
   25.3763  -22.2802   -9.4371 C   0  0  0  0  0  0  0  0  0  0  0  0
   25.3146  -19.9262  -10.0902 C   0  0  2  0  0  0  0  0  0  0  0  0
   25.0833  -18.9227  -11.0933 N   0  0  0  0  0  0  0  0  0  0  0  0
   26.6434  -19.7381   -9.5089 C   0  0  0  0  0  0  0  0  0  0  0  0
   27.6988  -19.4964  -10.1477 O   0  0  0  0  0  0  0  0  0  0  0  0
   29.1020  -19.4004   -4.2081 C   0  0  0  0  0  0  0  0  0  0  0  0
   28.8677  -18.4534   -5.3551 C   0  0  2  0  0  0  0  0  0  0  0  0
   28.6168  -17.0838   -4.7578 C   0  0  0  0  0  0  0  0  0  0  0  0
   27.6867  -18.8004   -6.1954 C   0  0  0  0  0  0  0  0  0  0  0  0
   28.0632  -19.6494   -7.4143 C   0  0  2  0  0  0  0  0  0  0  0  0
   26.7819  -19.8316   -8.0965 N   0  0  0  0  0  0  0  0  0  0  0  0
   28.5962  -20.9247   -6.9139 C   0  0  0  0  0  0  0  0  0  0  0  0
   27.8469  -21.6064   -6.1748 O   0  0  0  0  0  0  0  0  0  0  0  0
   29.8870  -21.4090   -7.2221 N   0  0  0  0  0  0  0  0  0  0  0  0
   30.9357  -20.8565   -8.0512 C   0  0  0  0  0  0  0  0  0  0  0  0
   32.1714  -21.2810   -7.2798 C   0  0  0  0  0  0  0  0  0  0  0  0
   31.8369  -22.7595   -7.0615 C   0  0  0  0  0  0  0  0  0  0  0  0
   30.3980  -22.6803   -6.6768 C   0  0  1  0  0  0  0  0  0  0  0  0
   30.3421  -22.5600   -5.1992 C   0  0  0  0  0  0  0  0  0  0  0  0
   30.4317  -23.6548   -4.3686 O   0  0  0  0  0  0  0  0  0  0  0  0
   30.2083  -21.4208   -4.6930 O   0  0  0  0  0  0  0  0  0  0  0  0
  2  1  1  1
  2  3  1  0
  4  2  1  0
  4  6  1  0
  4  5  1  6
  6  7  2  0
  9 11  1  0
  9  8  1  1
 10  9  1  0
 12 11  1  1
 12 14  1  0
 13  6  1  0
 13 12  1  0
 14 15  2  0
 16 17  1  0
 16 14  1  0
 18 17  1  0
 19 20  1  0
 19 18  1  0
 20 16  1  0
 21 22  1  0
 20 21  1  1
 23 21  2  0
M  END
$$$$
