VLP.pdb
     RDKit          3D

 23 23  0  0  1  0  0  0  0  0999 V2000
   22.4258  -21.7521  -15.0446 C   0  0  0  0  0  0  0  0  0  0  0  0
   22.0766  -22.3289  -13.7191 C   0  0  2  0  0  0  0  0  0  0  0  0
   20.8002  -23.1448  -13.8900 C   0  0  0  0  0  0  0  0  0  0  0  0
   21.8365  -21.3156  -12.6441 C   0  0  2  0  0  0  0  0  0  0  0  0
   20.7227  -20.4488  -12.9182 N   0  0  0  0  0  0  0  0  0  0  0  0
   23.0069  -20.5110  -12.2955 C   0  0  0  0  0  0  0  0  0  0  0  0
   23.3518  -19.4354  -12.8474 O   0  0  0  0  0  0  0  0  0  0  0  0
   27.2198  -20.9064   -7.7506 C   0  0  0  0  0  0  0  0  0  0  0  0
   26.6939  -20.2247   -8.9859 C   0  0  2  0  0  0  0  0  0  0  0  0
   26.3453  -18.8028   -8.5958 C   0  0  0  0  0  0  0  0  0  0  0  0
   25.4633  -20.8516   -9.5461 C   0  0  0  0  0  0  0  0  0  0  0  0
   25.1619  -20.3798  -10.9725 C   0  0  2  0  0  0  0  0  0  0  0  0
   23.8473  -20.9631  -11.2409 N   0  0  0  0  0  0  0  0  0  0  0  0
   26.1953  -20.9471  -11.8506 C   0  0  0  0  0  0  0  0  0  0  0  0
   26.5478  -22.1298  -11.6281 O   0  0  0  0  0  0  0  0  0  0  0  0
   26.7965  -20.2366  -12.9133 N   0  0  0  0  0  0  0  0  0  0  0  0
   26.5984  -18.8827  -13.3827 C   0  0  0  0  0  0  0  0  0  0  0  0
   28.0068  -18.5129  -13.8092 C   0  0  0  0  0  0  0  0  0  0  0  0
   28.3497  -19.7490  -14.6459 C   0  0  0  0  0  0  0  0  0  0  0  0
   27.8237  -20.8437  -13.7799 C   0  0  1  0  0  0  0  0  0  0  0  0
   28.9299  -21.2719  -12.8891 C   0  0  0  0  0  0  0  0  0  0  0  0
   29.9823  -22.0375  -13.3397 O   0  0  0  0  0  0  0  0  0  0  0  0
   28.9022  -20.9232  -11.6851 O   0  0  0  0  0  0  0  0  0  0  0  0
  2  1  1  6
  2  3  1  0
  4  2  1  0
  4  6  1  0
  4  5  1  6
  6  7  2  0
  9 11  1  0
  9  8  1  1
 10  9  1  0
 12 11  1  1
 12 14  1  0
 13  6  1  0
 13 12  1  0
 14 15  2  0
 16 17  1  0
 16 14  1  0
 18 17  1  0
 19 20  1  0
 19 18  1  0
 20 16  1  0
 21 22  1  0
 20 21  1  1
 23 21  2  0
M  END
$$$$
