WWV.pdb
     RDKit          3D

 36 39  0  0  1  0  0  0  0  0999 V2000
   28.1898  -19.9588   -9.3343 N   0  0  0  0  0  0  0  0  0  0  0  0
   26.8437  -20.5204   -9.2170 C   0  0  1  0  0  0  0  0  0  0  0  0
   26.1952  -19.7459   -8.0690 C   0  0  0  0  0  0  0  0  0  0  0  0
   27.1985  -19.4556   -7.0070 C   0  0  0  0  0  0  0  0  0  0  0  0
   27.9739  -18.2948   -6.9046 C   0  0  0  0  0  0  0  0  0  0  0  0
   28.7599  -18.4010   -5.8189 N   0  0  0  0  0  0  0  0  0  0  0  0
   28.5296  -19.5877   -5.2026 C   0  0  0  0  0  0  0  0  0  0  0  0
   29.0744  -20.1685   -4.0566 C   0  0  0  0  0  0  0  0  0  0  0  0
   28.6622  -21.4159   -3.6232 C   0  0  0  0  0  0  0  0  0  0  0  0
   27.6957  -22.0576   -4.3688 C   0  0  0  0  0  0  0  0  0  0  0  0
   27.1595  -21.4861   -5.4958 C   0  0  0  0  0  0  0  0  0  0  0  0
   27.5694  -20.2322   -5.9371 C   0  0  0  0  0  0  0  0  0  0  0  0
   26.0816  -20.1838  -10.4528 C   0  0  0  0  0  0  0  0  0  0  0  0
   26.1528  -19.0538  -11.0137 O   0  0  0  0  0  0  0  0  0  0  0  0
   25.2477  -21.1625  -11.0316 N   0  0  0  0  0  0  0  0  0  0  0  0
   24.5194  -20.9408  -12.2806 C   0  0  1  0  0  0  0  0  0  0  0  0
   25.2239  -21.7543  -13.3157 C   0  0  0  0  0  0  0  0  0  0  0  0
   26.5438  -21.2529  -13.7240 C   0  0  0  0  0  0  0  0  0  0  0  0
   27.8236  -21.6796  -13.4310 C   0  0  0  0  0  0  0  0  0  0  0  0
   28.7123  -20.8861  -14.0539 N   0  0  0  0  0  0  0  0  0  0  0  0
   28.0801  -19.9283  -14.7660 C   0  0  0  0  0  0  0  0  0  0  0  0
   28.5333  -18.8998  -15.5617 C   0  0  0  0  0  0  0  0  0  0  0  0
   27.6490  -18.0598  -16.1833 C   0  0  0  0  0  0  0  0  0  0  0  0
   26.2907  -18.2518  -16.0051 C   0  0  0  0  0  0  0  0  0  0  0  0
   25.8543  -19.2825  -15.2072 C   0  0  0  0  0  0  0  0  0  0  0  0
   26.7182  -20.1490  -14.5652 C   0  0  0  0  0  0  0  0  0  0  0  0
   23.0818  -21.2329  -12.1216 C   0  0  0  0  0  0  0  0  0  0  0  0
   22.6243  -22.1895  -11.4685 O   0  0  0  0  0  0  0  0  0  0  0  0
   18.5572  -19.2211  -12.5951 C   0  0  0  0  0  0  0  0  0  0  0  0
   20.0553  -19.1874  -12.8072 C   0  0  1  0  0  0  0  0  0  0  0  0
   20.5702  -18.2054  -11.7340 C   0  0  0  0  0  0  0  0  0  0  0  0
   20.7137  -20.4974  -12.6754 C   0  0  2  0  0  0  0  0  0  0  0  0
   22.1404  -20.3770  -12.7517 N   0  0  0  0  0  0  0  0  0  0  0  0
   20.2027  -21.5384  -13.6231 C   0  0  0  0  0  0  0  0  0  0  0  0
   20.5631  -21.5669  -14.8169 O   0  0  0  0  0  0  0  0  0  0  0  0
   19.3038  -22.5111  -13.2025 O   0  0  0  0  0  0  0  0  0  0  0  0
  2  1  1  6
  2  3  1  0
  3  4  1  0
  4  5  2  0
  5  6  1  0
  7  8  2  0
  7  6  1  0
  9  8  1  0
 10  9  2  0
 11 10  1  0
 11 12  2  0
 12  4  1  0
 12  7  1  0
 13  2  1  0
 14 13  2  0
 15 13  1  0
 16 17  1  6
 16 15  1  0
 18 17  1  0
 19 18  2  0
 20 21  1  0
 20 19  1  0
 21 26  2  0
 22 21  1  0
 22 23  2  0
 23 24  1  0
 24 25  2  0
 26 18  1  0
 26 25  1  0
 27 16  1  0
 28 27  2  0
 30 29  1  1
 31 30  1  0
 32 30  1  0
 32 33  1  6
 33 27  1  0
 34 32  1  0
 34 36  1  0
 35 34  2  0
M  END
$$$$
