WWV.pdb
     RDKit          3D

 36 39  0  0  1  0  0  0  0  0999 V2000
   26.7846  -20.3651  -17.0274 N   0  0  0  0  0  0  0  0  0  0  0  0
   26.6522  -19.9373  -15.6343 C   0  0  1  0  0  0  0  0  0  0  0  0
   25.7339  -18.7157  -15.6856 C   0  0  0  0  0  0  0  0  0  0  0  0
   26.3766  -17.6154  -16.4569 C   0  0  0  0  0  0  0  0  0  0  0  0
   25.7124  -16.6647  -17.2406 C   0  0  0  0  0  0  0  0  0  0  0  0
   26.6281  -15.8401  -17.7786 N   0  0  0  0  0  0  0  0  0  0  0  0
   27.8697  -16.2121  -17.3771 C   0  0  0  0  0  0  0  0  0  0  0  0
   29.1360  -15.6918  -17.6474 C   0  0  0  0  0  0  0  0  0  0  0  0
   30.2733  -16.2617  -17.1038 C   0  0  0  0  0  0  0  0  0  0  0  0
   30.1027  -17.3605  -16.2882 C   0  0  0  0  0  0  0  0  0  0  0  0
   28.8571  -17.8721  -16.0219 C   0  0  0  0  0  0  0  0  0  0  0  0
   27.7096  -17.3040  -16.5653 C   0  0  0  0  0  0  0  0  0  0  0  0
   25.9233  -20.9970  -14.8814 C   0  0  0  0  0  0  0  0  0  0  0  0
   25.1239  -21.8031  -15.4363 O   0  0  0  0  0  0  0  0  0  0  0  0
   26.1320  -21.1174  -13.4921 N   0  0  0  0  0  0  0  0  0  0  0  0
   25.5782  -22.2175  -12.7029 C   0  0  1  0  0  0  0  0  0  0  0  0
   26.4691  -22.3571  -11.5127 C   0  0  0  0  0  0  0  0  0  0  0  0
   26.1714  -21.4558  -10.3906 C   0  0  0  0  0  0  0  0  0  0  0  0
   25.0286  -20.7649  -10.0405 C   0  0  0  0  0  0  0  0  0  0  0  0
   25.2555  -20.0687   -8.9131 N   0  0  0  0  0  0  0  0  0  0  0  0
   26.5197  -20.2620   -8.4789 C   0  0  0  0  0  0  0  0  0  0  0  0
   27.2206  -19.7857   -7.3935 C   0  0  0  0  0  0  0  0  0  0  0  0
   28.5219  -20.1577   -7.1881 C   0  0  0  0  0  0  0  0  0  0  0  0
   29.1309  -21.0189   -8.0831 C   0  0  0  0  0  0  0  0  0  0  0  0
   28.4181  -21.4851   -9.1619 C   0  0  0  0  0  0  0  0  0  0  0  0
   27.1038  -21.1308   -9.3998 C   0  0  0  0  0  0  0  0  0  0  0  0
   24.1518  -21.9934  -12.3986 C   0  0  0  0  0  0  0  0  0  0  0  0
   23.4722  -22.7073  -11.6375 O   0  0  0  0  0  0  0  0  0  0  0  0
   20.4725  -18.7043  -12.4528 C   0  0  0  0  0  0  0  0  0  0  0  0
   21.9187  -19.1295  -12.5872 C   0  0  1  0  0  0  0  0  0  0  0  0
   22.5560  -18.7457  -11.2352 C   0  0  0  0  0  0  0  0  0  0  0  0
   22.1037  -20.5635  -12.8633 C   0  0  2  0  0  0  0  0  0  0  0  0
   23.4911  -20.8947  -13.0086 N   0  0  0  0  0  0  0  0  0  0  0  0
   21.2972  -21.0745  -14.0172 C   0  0  0  0  0  0  0  0  0  0  0  0
   21.5899  -20.7880  -15.1953 O   0  0  0  0  0  0  0  0  0  0  0  0
   20.1888  -21.8874  -13.8126 O   0  0  0  0  0  0  0  0  0  0  0  0
  2  1  1  6
  2  3  1  0
  3  4  1  0
  4  5  2  0
  5  6  1  0
  7  8  2  0
  7  6  1  0
  9  8  1  0
 10  9  2  0
 11 10  1  0
 11 12  2  0
 12  4  1  0
 12  7  1  0
 13  2  1  0
 14 13  2  0
 15 13  1  0
 16 17  1  1
 16 15  1  0
 18 17  1  0
 19 18  2  0
 20 21  1  0
 20 19  1  0
 21 26  2  0
 22 21  1  0
 22 23  2  0
 23 24  1  0
 24 25  2  0
 26 18  1  0
 26 25  1  0
 27 16  1  0
 28 27  2  0
 30 29  1  1
 31 30  1  0
 32 30  1  0
 32 33  1  6
 33 27  1  0
 34 32  1  0
 34 36  1  0
 35 34  2  0
M  END
$$$$
