WWV.pdb
     RDKit          3D

 36 39  0  0  1  0  0  0  0  0999 V2000
   24.3991  -17.2471  -17.1914 N   0  0  0  0  0  0  0  0  0  0  0  0
   24.9414  -17.8612  -15.9790 C   0  0  1  0  0  0  0  0  0  0  0  0
   25.9718  -16.8580  -15.4593 C   0  0  0  0  0  0  0  0  0  0  0  0
   27.1838  -16.8634  -16.3252 C   0  0  0  0  0  0  0  0  0  0  0  0
   27.7615  -15.7447  -16.9369 C   0  0  0  0  0  0  0  0  0  0  0  0
   28.8368  -16.1483  -17.6360 N   0  0  0  0  0  0  0  0  0  0  0  0
   28.9888  -17.4904  -17.5059 C   0  0  0  0  0  0  0  0  0  0  0  0
   29.9327  -18.3798  -18.0212 C   0  0  0  0  0  0  0  0  0  0  0  0
   29.8712  -19.7317  -17.7345 C   0  0  0  0  0  0  0  0  0  0  0  0
   28.8423  -20.1604  -16.9225 C   0  0  0  0  0  0  0  0  0  0  0  0
   27.9141  -19.2855  -16.4153 C   0  0  0  0  0  0  0  0  0  0  0  0
   27.9700  -17.9251  -16.6997 C   0  0  0  0  0  0  0  0  0  0  0  0
   23.8561  -17.9357  -14.9604 C   0  0  0  0  0  0  0  0  0  0  0  0
   23.1096  -16.9545  -14.6834 O   0  0  0  0  0  0  0  0  0  0  0  0
   23.6410  -19.1494  -14.2755 N   0  0  0  0  0  0  0  0  0  0  0  0
   22.6252  -19.2988  -13.2336 C   0  0  1  0  0  0  0  0  0  0  0  0
   21.3254  -19.4656  -13.9494 C   0  0  0  0  0  0  0  0  0  0  0  0
   20.1383  -19.5690  -13.0891 C   0  0  0  0  0  0  0  0  0  0  0  0
   19.8169  -18.9745  -11.8853 C   0  0  0  0  0  0  0  0  0  0  0  0
   18.6001  -19.3900  -11.4929 N   0  0  0  0  0  0  0  0  0  0  0  0
   18.0769  -20.2513  -12.3921 C   0  0  0  0  0  0  0  0  0  0  0  0
   16.8835  -20.9362  -12.4488 C   0  0  0  0  0  0  0  0  0  0  0  0
   16.6039  -21.7600  -13.5057 C   0  0  0  0  0  0  0  0  0  0  0  0
   17.5331  -21.9008  -14.5208 C   0  0  0  0  0  0  0  0  0  0  0  0
   18.7199  -21.2110  -14.4492 C   0  0  0  0  0  0  0  0  0  0  0  0
   19.0348  -20.3713  -13.3980 C   0  0  0  0  0  0  0  0  0  0  0  0
   22.9729  -20.3861  -12.2986 C   0  0  0  0  0  0  0  0  0  0  0  0
   23.2602  -21.5478  -12.6429 O   0  0  0  0  0  0  0  0  0  0  0  0
   25.7137  -20.3991  -10.1070 C   0  0  0  0  0  0  0  0  0  0  0  0
   24.5510  -20.6747   -9.1783 C   0  0  1  0  0  0  0  0  0  0  0  0
   24.3750  -19.3612   -8.3878 C   0  0  0  0  0  0  0  0  0  0  0  0
   23.3023  -21.0416   -9.8660 C   0  0  2  0  0  0  0  0  0  0  0  0
   22.9829  -20.1080  -10.9063 N   0  0  0  0  0  0  0  0  0  0  0  0
   22.1376  -21.2558   -8.9490 C   0  0  0  0  0  0  0  0  0  0  0  0
   21.1618  -20.4789   -8.9416 O   0  0  0  0  0  0  0  0  0  0  0  0
   22.1061  -22.3316   -8.0699 O   0  0  0  0  0  0  0  0  0  0  0  0
  2  1  1  6
  2  3  1  0
  3  4  1  0
  4  5  2  0
  5  6  1  0
  7  8  2  0
  7  6  1  0
  9  8  1  0
 10  9  2  0
 11 10  1  0
 11 12  2  0
 12  4  1  0
 12  7  1  0
 13  2  1  0
 14 13  2  0
 15 13  1  0
 16 17  1  6
 16 15  1  0
 18 17  1  0
 19 18  2  0
 20 21  1  0
 20 19  1  0
 21 26  2  0
 22 21  1  0
 22 23  2  0
 23 24  1  0
 24 25  2  0
 26 18  1  0
 26 25  1  0
 27 16  1  0
 28 27  2  0
 30 29  1  6
 31 30  1  0
 32 30  1  0
 32 33  1  6
 33 27  1  0
 34 32  1  0
 34 36  1  0
 35 34  2  0
M  END
$$$$
