WWV.pdb
     RDKit          3D

 36 39  0  0  1  0  0  0  0  0999 V2000
   26.6641  -20.4391  -17.1684 N   0  0  0  0  0  0  0  0  0  0  0  0
   26.5717  -19.5739  -15.9919 C   0  0  1  0  0  0  0  0  0  0  0  0
   25.1146  -19.1115  -15.9595 C   0  0  0  0  0  0  0  0  0  0  0  0
   24.8980  -18.0094  -16.9380 C   0  0  0  0  0  0  0  0  0  0  0  0
   24.1004  -18.0753  -18.0863 C   0  0  0  0  0  0  0  0  0  0  0  0
   24.1561  -16.8871  -18.7133 N   0  0  0  0  0  0  0  0  0  0  0  0
   24.9595  -16.0418  -18.0196 C   0  0  0  0  0  0  0  0  0  0  0  0
   25.3382  -14.7171  -18.2415 C   0  0  0  0  0  0  0  0  0  0  0  0
   26.1854  -14.0605  -17.3670 C   0  0  0  0  0  0  0  0  0  0  0  0
   26.6376  -14.7677  -16.2728 C   0  0  0  0  0  0  0  0  0  0  0  0
   26.2647  -16.0706  -16.0543 C   0  0  0  0  0  0  0  0  0  0  0  0
   25.4133  -16.7367  -16.9296 C   0  0  0  0  0  0  0  0  0  0  0  0
   26.7903  -20.4058  -14.7748 C   0  0  0  0  0  0  0  0  0  0  0  0
   26.4416  -21.6183  -14.7035 O   0  0  0  0  0  0  0  0  0  0  0  0
   27.4170  -19.8267  -13.6522 N   0  0  0  0  0  0  0  0  0  0  0  0
   27.3239  -20.4032  -12.3111 C   0  0  1  0  0  0  0  0  0  0  0  0
   28.4247  -19.7781  -11.5191 C   0  0  0  0  0  0  0  0  0  0  0  0
   28.4740  -20.1533  -10.0989 C   0  0  0  0  0  0  0  0  0  0  0  0
   27.6168  -19.8985   -9.0472 C   0  0  0  0  0  0  0  0  0  0  0  0
   28.1022  -20.4640   -7.9284 N   0  0  0  0  0  0  0  0  0  0  0  0
   29.2665  -21.0999   -8.1814 C   0  0  0  0  0  0  0  0  0  0  0  0
   30.1332  -21.8185   -7.3883 C   0  0  0  0  0  0  0  0  0  0  0  0
   31.2665  -22.3719   -7.9205 C   0  0  0  0  0  0  0  0  0  0  0  0
   31.5369  -22.2028   -9.2666 C   0  0  0  0  0  0  0  0  0  0  0  0
   30.6624  -21.4823  -10.0447 C   0  0  0  0  0  0  0  0  0  0  0  0
   29.5096  -20.9105   -9.5412 C   0  0  0  0  0  0  0  0  0  0  0  0
   25.9701  -20.2352  -11.7487 C   0  0  0  0  0  0  0  0  0  0  0  0
   25.3882  -19.1412  -11.6250 O   0  0  0  0  0  0  0  0  0  0  0  0
   22.9432  -21.3214  -13.0394 C   0  0  0  0  0  0  0  0  0  0  0  0
   22.9716  -21.9848  -11.6795 C   0  0  1  0  0  0  0  0  0  0  0  0
   23.3096  -23.4598  -11.9820 C   0  0  0  0  0  0  0  0  0  0  0  0
   23.9506  -21.4057  -10.7451 C   0  0  2  0  0  0  0  0  0  0  0  0
   25.2682  -21.3889  -11.3102 N   0  0  0  0  0  0  0  0  0  0  0  0
   23.9480  -22.0357   -9.3863 C   0  0  0  0  0  0  0  0  0  0  0  0
   24.8876  -22.7600   -9.0013 O   0  0  0  0  0  0  0  0  0  0  0  0
   22.8922  -21.8348   -8.5054 O   0  0  0  0  0  0  0  0  0  0  0  0
  2  1  1  6
  2  3  1  0
  3  4  1  0
  4  5  2  0
  5  6  1  0
  7  8  2  0
  7  6  1  0
  9  8  1  0
 10  9  2  0
 11 10  1  0
 11 12  2  0
 12  4  1  0
 12  7  1  0
 13  2  1  0
 14 13  2  0
 15 13  1  0
 16 17  1  1
 16 15  1  0
 18 17  1  0
 19 18  2  0
 20 21  1  0
 20 19  1  0
 21 26  2  0
 22 21  1  0
 22 23  2  0
 23 24  1  0
 24 25  2  0
 26 18  1  0
 26 25  1  0
 27 16  1  0
 28 27  2  0
 30 29  1  6
 31 30  1  0
 32 30  1  0
 32 33  1  6
 33 27  1  0
 34 32  1  0
 34 36  1  0
 35 34  2  0
M  END
$$$$
