WWV.pdb
     RDKit          3D

 36 39  0  0  1  0  0  0  0  0999 V2000
   25.7726  -19.8720  -17.1792 N   0  0  0  0  0  0  0  0  0  0  0  0
   25.1285  -19.5471  -15.9061 C   0  0  1  0  0  0  0  0  0  0  0  0
   23.6560  -19.9059  -16.1096 C   0  0  0  0  0  0  0  0  0  0  0  0
   22.9820  -18.8755  -16.9478 C   0  0  0  0  0  0  0  0  0  0  0  0
   23.0998  -18.7400  -18.3360 C   0  0  0  0  0  0  0  0  0  0  0  0
   22.3463  -17.6979  -18.7286 N   0  0  0  0  0  0  0  0  0  0  0  0
   21.7362  -17.1436  -17.6508 C   0  0  0  0  0  0  0  0  0  0  0  0
   20.8638  -16.0620  -17.5224 C   0  0  0  0  0  0  0  0  0  0  0  0
   20.3673  -15.6877  -16.2866 C   0  0  0  0  0  0  0  0  0  0  0  0
   20.7698  -16.4251  -15.1929 C   0  0  0  0  0  0  0  0  0  0  0  0
   21.6276  -17.4893  -15.3193 C   0  0  0  0  0  0  0  0  0  0  0  0
   22.1306  -17.8708  -16.5587 C   0  0  0  0  0  0  0  0  0  0  0  0
   25.6587  -20.4665  -14.8597 C   0  0  0  0  0  0  0  0  0  0  0  0
   25.8083  -21.7065  -15.0510 O   0  0  0  0  0  0  0  0  0  0  0  0
   26.0168  -19.9393  -13.6018 N   0  0  0  0  0  0  0  0  0  0  0  0
   26.5965  -20.7593  -12.5382 C   0  0  1  0  0  0  0  0  0  0  0  0
   27.2853  -19.8077  -11.6165 C   0  0  0  0  0  0  0  0  0  0  0  0
   28.1609  -20.4240  -10.6097 C   0  0  0  0  0  0  0  0  0  0  0  0
   29.1873  -21.3410  -10.7170 C   0  0  0  0  0  0  0  0  0  0  0  0
   29.6899  -21.5935   -9.4961 N   0  0  0  0  0  0  0  0  0  0  0  0
   29.0393  -20.8766   -8.5544 C   0  0  0  0  0  0  0  0  0  0  0  0
   29.1775  -20.7816   -7.1875 C   0  0  0  0  0  0  0  0  0  0  0  0
   28.3657  -19.9516   -6.4623 C   0  0  0  0  0  0  0  0  0  0  0  0
   27.4006  -19.2059   -7.1150 C   0  0  0  0  0  0  0  0  0  0  0  0
   27.2747  -19.3123   -8.4797 C   0  0  0  0  0  0  0  0  0  0  0  0
   28.0767  -20.1393   -9.2427 C   0  0  0  0  0  0  0  0  0  0  0  0
   25.5760  -21.6187  -11.9079 C   0  0  0  0  0  0  0  0  0  0  0  0
   25.8105  -22.7231  -11.3823 O   0  0  0  0  0  0  0  0  0  0  0  0
   23.8954  -20.7351   -9.0593 C   0  0  0  0  0  0  0  0  0  0  0  0
   22.7521  -21.0403  -10.0029 C   0  0  1  0  0  0  0  0  0  0  0  0
   22.2016  -19.6533  -10.3957 C   0  0  0  0  0  0  0  0  0  0  0  0
   23.1433  -21.8046  -11.1986 C   0  0  2  0  0  0  0  0  0  0  0  0
   24.2278  -21.1737  -11.8925 N   0  0  0  0  0  0  0  0  0  0  0  0
   22.0089  -22.1144  -12.1262 C   0  0  0  0  0  0  0  0  0  0  0  0
   21.9617  -21.6417  -13.2795 O   0  0  0  0  0  0  0  0  0  0  0  0
   20.9648  -22.9415  -11.7301 O   0  0  0  0  0  0  0  0  0  0  0  0
  2  1  1  6
  2  3  1  0
  3  4  1  0
  4  5  2  0
  5  6  1  0
  7  8  2  0
  7  6  1  0
  9  8  1  0
 10  9  2  0
 11 10  1  0
 11 12  2  0
 12  4  1  0
 12  7  1  0
 13  2  1  0
 14 13  2  0
 15 13  1  0
 16 17  1  1
 16 15  1  0
 18 17  1  0
 19 18  2  0
 20 21  1  0
 20 19  1  0
 21 26  2  0
 22 21  1  0
 22 23  2  0
 23 24  1  0
 24 25  2  0
 26 18  1  0
 26 25  1  0
 27 16  1  0
 28 27  2  0
 30 29  1  1
 31 30  1  0
 32 30  1  0
 32 33  1  6
 33 27  1  0
 34 32  1  0
 34 36  1  0
 35 34  2  0
M  END
$$$$
