WWV.pdb
     RDKit          3D

 36 39  0  0  1  0  0  0  0  0999 V2000
   28.1508  -20.7486  -13.3017 N   0  0  0  0  0  0  0  0  0  0  0  0
   26.9151  -20.1615  -12.7824 C   0  0  1  0  0  0  0  0  0  0  0  0
   25.9003  -20.3201  -13.9152 C   0  0  0  0  0  0  0  0  0  0  0  0
   26.2364  -19.4085  -15.0444 C   0  0  0  0  0  0  0  0  0  0  0  0
   27.1016  -19.6995  -16.1056 C   0  0  0  0  0  0  0  0  0  0  0  0
   27.1504  -18.6319  -16.9214 N   0  0  0  0  0  0  0  0  0  0  0  0
   26.3487  -17.6500  -16.4373 C   0  0  0  0  0  0  0  0  0  0  0  0
   26.0524  -16.3685  -16.9035 C   0  0  0  0  0  0  0  0  0  0  0  0
   25.1828  -15.5415  -16.2153 C   0  0  0  0  0  0  0  0  0  0  0  0
   24.6251  -16.0350  -15.0546 C   0  0  0  0  0  0  0  0  0  0  0  0
   24.9162  -17.2957  -14.5962 C   0  0  0  0  0  0  0  0  0  0  0  0
   25.7897  -18.1323  -15.2832 C   0  0  0  0  0  0  0  0  0  0  0  0
   26.4337  -20.9996  -11.6480 C   0  0  0  0  0  0  0  0  0  0  0  0
   26.6010  -22.2513  -11.6033 O   0  0  0  0  0  0  0  0  0  0  0  0
   25.7676  -20.3785  -10.5714 N   0  0  0  0  0  0  0  0  0  0  0  0
   24.7227  -21.0483   -9.7974 C   0  0  1  0  0  0  0  0  0  0  0  0
   24.9785  -20.6927   -8.3699 C   0  0  0  0  0  0  0  0  0  0  0  0
   26.3364  -20.2167   -8.0701 C   0  0  0  0  0  0  0  0  0  0  0  0
   27.2598  -19.5252   -8.8284 C   0  0  0  0  0  0  0  0  0  0  0  0
   28.3700  -19.3172   -8.0995 N   0  0  0  0  0  0  0  0  0  0  0  0
   28.2354  -19.8447   -6.8635 C   0  0  0  0  0  0  0  0  0  0  0  0
   29.0697  -19.8915   -5.7689 C   0  0  0  0  0  0  0  0  0  0  0  0
   28.6659  -20.5021   -4.6122 C   0  0  0  0  0  0  0  0  0  0  0  0
   27.4083  -21.0750   -4.5504 C   0  0  0  0  0  0  0  0  0  0  0  0
   26.5877  -21.0206   -5.6517 C   0  0  0  0  0  0  0  0  0  0  0  0
   26.9624  -20.4126   -6.8346 C   0  0  0  0  0  0  0  0  0  0  0  0
   23.3791  -20.7037  -10.3008 C   0  0  0  0  0  0  0  0  0  0  0  0
   22.9796  -19.5425  -10.5075 O   0  0  0  0  0  0  0  0  0  0  0  0
   21.9555  -21.9310  -13.4308 C   0  0  0  0  0  0  0  0  0  0  0  0
   20.9621  -22.3199  -12.3573 C   0  0  1  0  0  0  0  0  0  0  0  0
   21.1840  -23.8347  -12.1636 C   0  0  0  0  0  0  0  0  0  0  0  0
   21.1347  -21.5999  -11.0851 C   0  0  2  0  0  0  0  0  0  0  0  0
   22.4641  -21.7553  -10.5709 N   0  0  0  0  0  0  0  0  0  0  0  0
   20.1066  -21.9327  -10.0481 C   0  0  0  0  0  0  0  0  0  0  0  0
   20.3829  -22.6414   -9.0595 O   0  0  0  0  0  0  0  0  0  0  0  0
   18.8033  -21.4624  -10.1543 O   0  0  0  0  0  0  0  0  0  0  0  0
  2  1  1  6
  2  3  1  0
  3  4  1  0
  4  5  2  0
  5  6  1  0
  7  8  2  0
  7  6  1  0
  9  8  1  0
 10  9  2  0
 11 10  1  0
 11 12  2  0
 12  4  1  0
 12  7  1  0
 13  2  1  0
 14 13  2  0
 15 13  1  0
 16 17  1  1
 16 15  1  0
 18 17  1  0
 19 18  2  0
 20 21  1  0
 20 19  1  0
 21 26  2  0
 22 21  1  0
 22 23  2  0
 23 24  1  0
 24 25  2  0
 26 18  1  0
 26 25  1  0
 27 16  1  0
 28 27  2  0
 30 29  1  6
 31 30  1  0
 32 30  1  0
 32 33  1  1
 33 27  1  0
 34 32  1  0
 34 36  1  0
 35 34  2  0
M  END
$$$$
