WWV.pdb
     RDKit          3D

 36 39  0  0  1  0  0  0  0  0999 V2000
   23.4520  -20.1074  -16.1410 N   0  0  0  0  0  0  0  0  0  0  0  0
   22.8758  -19.5364  -14.9231 C   0  0  1  0  0  0  0  0  0  0  0  0
   21.3770  -19.8199  -15.0290 C   0  0  0  0  0  0  0  0  0  0  0  0
   20.7283  -18.8447  -15.9494 C   0  0  0  0  0  0  0  0  0  0  0  0
   20.2898  -19.1107  -17.2517 C   0  0  0  0  0  0  0  0  0  0  0  0
   19.7611  -17.9849  -17.7623 N   0  0  0  0  0  0  0  0  0  0  0  0
   19.8341  -16.9886  -16.8440 C   0  0  0  0  0  0  0  0  0  0  0  0
   19.4300  -15.6532  -16.8775 C   0  0  0  0  0  0  0  0  0  0  0  0
   19.6176  -14.8229  -15.7870 C   0  0  0  0  0  0  0  0  0  0  0  0
   20.2182  -15.3683  -14.6719 C   0  0  0  0  0  0  0  0  0  0  0  0
   20.6152  -16.6819  -14.6388 C   0  0  0  0  0  0  0  0  0  0  0  0
   20.4298  -17.5222  -15.7317 C   0  0  0  0  0  0  0  0  0  0  0  0
   23.3821  -20.3089  -13.7534 C   0  0  0  0  0  0  0  0  0  0  0  0
   23.3958  -21.5720  -13.7221 O   0  0  0  0  0  0  0  0  0  0  0  0
   23.8741  -19.6102  -12.6317 N   0  0  0  0  0  0  0  0  0  0  0  0
   24.3393  -20.2874  -11.4215 C   0  0  1  0  0  0  0  0  0  0  0  0
   25.4708  -19.4640  -10.9004 C   0  0  0  0  0  0  0  0  0  0  0  0
   26.5631  -20.2177  -10.2687 C   0  0  0  0  0  0  0  0  0  0  0  0
   27.3152  -21.2906  -10.7032 C   0  0  0  0  0  0  0  0  0  0  0  0
   28.2068  -21.6244   -9.7541 N   0  0  0  0  0  0  0  0  0  0  0  0
   28.0892  -20.8119   -8.6817 C   0  0  0  0  0  0  0  0  0  0  0  0
   28.7589  -20.7433   -7.4804 C   0  0  0  0  0  0  0  0  0  0  0  0
   28.4280  -19.7924   -6.5530 C   0  0  0  0  0  0  0  0  0  0  0  0
   27.4111  -18.8970   -6.8320 C   0  0  0  0  0  0  0  0  0  0  0  0
   26.7518  -18.9790   -8.0353 C   0  0  0  0  0  0  0  0  0  0  0  0
   27.0595  -19.9253   -8.9940 C   0  0  0  0  0  0  0  0  0  0  0  0
   23.2318  -20.5078  -10.4717 C   0  0  0  0  0  0  0  0  0  0  0  0
   22.4258  -19.6295  -10.1116 O   0  0  0  0  0  0  0  0  0  0  0  0
   20.1926  -23.7508   -8.4308 C   0  0  0  0  0  0  0  0  0  0  0  0
   21.2533  -23.3037   -9.4134 C   0  0  1  0  0  0  0  0  0  0  0  0
   20.4607  -22.9140  -10.6787 C   0  0  0  0  0  0  0  0  0  0  0  0
   22.0748  -22.1760   -8.9439 C   0  0  2  0  0  0  0  0  0  0  0  0
   23.0593  -21.8036   -9.9175 N   0  0  0  0  0  0  0  0  0  0  0  0
   22.6932  -22.3875   -7.5963 C   0  0  0  0  0  0  0  0  0  0  0  0
   22.2181  -21.8600   -6.5706 O   0  0  0  0  0  0  0  0  0  0  0  0
   23.8239  -23.1806   -7.4431 O   0  0  0  0  0  0  0  0  0  0  0  0
  2  1  1  6
  2  3  1  0
  3  4  1  0
  4  5  2  0
  5  6  1  0
  7  8  2  0
  7  6  1  0
  9  8  1  0
 10  9  2  0
 11 10  1  0
 11 12  2  0
 12  4  1  0
 12  7  1  0
 13  2  1  0
 14 13  2  0
 15 13  1  0
 16 17  1  1
 16 15  1  0
 18 17  1  0
 19 18  2  0
 20 21  1  0
 20 19  1  0
 21 26  2  0
 22 21  1  0
 22 23  2  0
 23 24  1  0
 24 25  2  0
 26 18  1  0
 26 25  1  0
 27 16  1  0
 28 27  2  0
 30 29  1  1
 31 30  1  0
 32 30  1  0
 32 33  1  6
 33 27  1  0
 34 32  1  0
 34 36  1  0
 35 34  2  0
M  END
$$$$
