WWV.pdb
     RDKit          3D

 36 39  0  0  1  0  0  0  0  0999 V2000
   28.8703  -23.1208  -17.4314 N   0  0  0  0  0  0  0  0  0  0  0  0
   27.9393  -22.0014  -17.2843 C   0  0  1  0  0  0  0  0  0  0  0  0
   26.8719  -22.2370  -18.3536 C   0  0  0  0  0  0  0  0  0  0  0  0
   27.1154  -21.3591  -19.5321 C   0  0  0  0  0  0  0  0  0  0  0  0
   27.9427  -21.6568  -20.6213 C   0  0  0  0  0  0  0  0  0  0  0  0
   27.9071  -20.6223  -21.4794 N   0  0  0  0  0  0  0  0  0  0  0  0
   27.0863  -19.6559  -20.9962 C   0  0  0  0  0  0  0  0  0  0  0  0
   26.7129  -18.4081  -21.4973 C   0  0  0  0  0  0  0  0  0  0  0  0
   25.8407  -17.5908  -20.8010 C   0  0  0  0  0  0  0  0  0  0  0  0
   25.3591  -18.0594  -19.5966 C   0  0  0  0  0  0  0  0  0  0  0  0
   25.7260  -19.2869  -19.1039 C   0  0  0  0  0  0  0  0  0  0  0  0
   26.6027  -20.1136  -19.7988 C   0  0  0  0  0  0  0  0  0  0  0  0
   27.2625  -22.1198  -15.9618 C   0  0  0  0  0  0  0  0  0  0  0  0
   26.9008  -23.2286  -15.4756 O   0  0  0  0  0  0  0  0  0  0  0  0
   27.0160  -20.9520  -15.2110 N   0  0  0  0  0  0  0  0  0  0  0  0
   26.3780  -20.9794  -13.8950 C   0  0  1  0  0  0  0  0  0  0  0  0
   27.1783  -20.0602  -13.0324 C   0  0  0  0  0  0  0  0  0  0  0  0
   26.8876  -20.1299  -11.5933 C   0  0  0  0  0  0  0  0  0  0  0  0
   25.7572  -19.8187  -10.8645 C   0  0  0  0  0  0  0  0  0  0  0  0
   25.9859  -20.0586   -9.5617 N   0  0  0  0  0  0  0  0  0  0  0  0
   27.2393  -20.5257   -9.3752 C   0  0  0  0  0  0  0  0  0  0  0  0
   27.9372  -20.9139   -8.2532 C   0  0  0  0  0  0  0  0  0  0  0  0
   29.2264  -21.3623   -8.3565 C   0  0  0  0  0  0  0  0  0  0  0  0
   29.8263  -21.4226   -9.6016 C   0  0  0  0  0  0  0  0  0  0  0  0
   29.1167  -21.0310  -10.7117 C   0  0  0  0  0  0  0  0  0  0  0  0
   27.8145  -20.5737  -10.6444 C   0  0  0  0  0  0  0  0  0  0  0  0
   24.9403  -20.6609  -13.9900 C   0  0  0  0  0  0  0  0  0  0  0  0
   24.4727  -19.6884  -14.6116 O   0  0  0  0  0  0  0  0  0  0  0  0
   20.4222  -22.5257  -13.8642 C   0  0  0  0  0  0  0  0  0  0  0  0
   21.9212  -22.6361  -13.6868 C   0  0  1  0  0  0  0  0  0  0  0  0
   22.4266  -23.1754  -15.0414 C   0  0  0  0  0  0  0  0  0  0  0  0
   22.5848  -21.3660  -13.3500 C   0  0  2  0  0  0  0  0  0  0  0  0
   24.0113  -21.5088  -13.3312 N   0  0  0  0  0  0  0  0  0  0  0  0
   22.0840  -20.7278  -12.0910 C   0  0  0  0  0  0  0  0  0  0  0  0
   22.4836  -21.0974  -10.9687 O   0  0  0  0  0  0  0  0  0  0  0  0
   21.1511  -19.6986  -12.1313 O   0  0  0  0  0  0  0  0  0  0  0  0
  2  1  1  1
  2  3  1  0
  3  4  1  0
  4  5  2  0
  5  6  1  0
  7  8  2  0
  7  6  1  0
  9  8  1  0
 10  9  2  0
 11 10  1  0
 11 12  2  0
 12  4  1  0
 12  7  1  0
 13  2  1  0
 14 13  2  0
 15 13  1  0
 16 17  1  1
 16 15  1  0
 18 17  1  0
 19 18  2  0
 20 21  1  0
 20 19  1  0
 21 26  2  0
 22 21  1  0
 22 23  2  0
 23 24  1  0
 24 25  2  0
 26 18  1  0
 26 25  1  0
 27 16  1  0
 28 27  2  0
 30 29  1  6
 31 30  1  0
 32 30  1  0
 32 33  1  1
 33 27  1  0
 34 32  1  0
 34 36  1  0
 35 34  2  0
M  END
$$$$
