YRF.pdb
     RDKit          3D

 35 36  0  0  1  0  0  0  0  0999 V2000
   11.9877  -12.4753   20.4340 O   0  0  0  0  0  0  0  0  0  0  0  0
   10.9962  -13.2214   19.8469 C   0  0  0  0  0  0  0  0  0  0  0  0
    9.6850  -12.7474   19.8260 C   0  0  0  0  0  0  0  0  0  0  0  0
    8.6886  -13.4790   19.2462 C   0  0  0  0  0  0  0  0  0  0  0  0
    8.9487  -14.6969   18.6693 C   0  0  0  0  0  0  0  0  0  0  0  0
    7.8198  -15.4478   18.0573 C   0  0  0  0  0  0  0  0  0  0  0  0
    8.0623  -16.9533   18.2317 C   0  0  2  0  0  0  0  0  0  0  0  0
    7.0525  -17.5804   17.3877 N   0  0  0  0  0  0  0  0  0  0  0  0
    7.8236  -17.2227   19.6746 C   0  0  0  0  0  0  0  0  0  0  0  0
    6.7270  -17.0325   20.1856 O   0  0  0  0  0  0  0  0  0  0  0  0
   10.2173  -15.1816   18.6761 C   0  0  0  0  0  0  0  0  0  0  0  0
   11.2274  -14.4345   19.2673 C   0  0  0  0  0  0  0  0  0  0  0  0
   12.0638  -20.6332   19.5686 N   0  0  0  0  0  0  0  0  0  0  0  0
   13.2144  -20.4458   20.4247 C   0  0  0  0  0  0  0  0  0  0  0  0
   14.3560  -20.4313   20.0256 N   0  0  0  0  0  0  0  0  0  0  0  0
   12.9501  -20.2719   21.8305 N   0  0  0  0  0  0  0  0  0  0  0  0
   11.5689  -20.3375   22.2590 C   0  0  0  0  0  0  0  0  0  0  0  0
   10.8097  -19.1027   21.8604 C   0  0  0  0  0  0  0  0  0  0  0  0
    9.4268  -19.1542   22.3729 C   0  0  0  0  0  0  0  0  0  0  0  0
    8.5790  -17.9646   21.8967 C   0  0  2  0  0  0  0  0  0  0  0  0
    8.8861  -17.7223   20.5142 N   0  0  0  0  0  0  0  0  0  0  0  0
    8.7649  -16.7941   22.7209 C   0  0  0  0  0  0  0  0  0  0  0  0
    9.5756  -15.8446   22.4169 O   0  0  0  0  0  0  0  0  0  0  0  0
   15.2558  -20.4437   19.7840 N   0  0  0  0  0  0  0  0  0  0  0  0
    8.0488  -16.6281   23.9277 C   0  0  1  0  0  0  0  0  0  0  0  0
    8.2057  -15.4170   24.7453 C   0  0  0  0  0  0  0  0  0  0  0  0
    7.0721  -14.4662   24.4681 C   0  0  0  0  0  0  0  0  0  0  0  0
    7.1228  -13.3027   25.3590 C   0  0  0  0  0  0  0  0  0  0  0  0
    7.9412  -12.2221   25.0986 C   0  0  0  0  0  0  0  0  0  0  0  0
    7.9305  -11.1082   25.9466 C   0  0  0  0  0  0  0  0  0  0  0  0
    7.1228  -11.0355   27.0565 C   0  0  0  0  0  0  0  0  0  0  0  0
    6.2989  -12.1119   27.3344 C   0  0  0  0  0  0  0  0  0  0  0  0
    6.3183  -13.1955   26.4949 C   0  0  0  0  0  0  0  0  0  0  0  0
    8.3982  -15.7707   26.1543 O   0  0  0  0  0  0  0  0  0  0  0  0
    9.2592  -15.1370   27.0271 O   0  0  0  0  0  0  0  0  0  0  0  0
  2  1  1  0
  3  2  2  0
  4  3  1  0
  5 11  1  0
  5  4  2  0
  6  5  1  0
  7  6  1  0
  7  8  1  6
  9  7  1  0
 10  9  2  0
 11 12  2  0
 12  2  1  0
 13 14  1  0
 14 16  1  0
 15 14  2  0
 16 17  1  0
 17 18  1  0
 18 19  1  0
 20 19  1  1
 20 22  1  0
 20 21  1  0
 21  9  1  0
 22 24  1  0
 23 22  2  0
 24 25  1  0
 25 26  1  1
 26 27  1  0
 27 28  2  0
 28 29  1  0
 30 29  2  0
 31 30  1  0
 32 27  1  0
 32 31  2  0
 33 34  1  0
 33 25  1  0
 35 33  2  0
M  END
$$$$
