YRF.pdb
     RDKit          3D

 35 36  0  0  1  0  0  0  0  0999 V2000
   10.1211  -19.2327   29.3961 O   0  0  0  0  0  0  0  0  0  0  0  0
    9.0908  -19.0016   28.5188 C   0  0  0  0  0  0  0  0  0  0  0  0
    8.3301  -20.0671   28.0388 C   0  0  0  0  0  0  0  0  0  0  0  0
    7.3029  -19.8523   27.1654 C   0  0  0  0  0  0  0  0  0  0  0  0
    6.9909  -18.5861   26.7373 C   0  0  0  0  0  0  0  0  0  0  0  0
    5.8629  -18.4177   25.7822 C   0  0  0  0  0  0  0  0  0  0  0  0
    6.2041  -19.1333   24.4679 C   0  0  2  0  0  0  0  0  0  0  0  0
    6.6490  -20.4577   24.8845 N   0  0  0  0  0  0  0  0  0  0  0  0
    7.3100  -18.3408   23.8675 C   0  0  0  0  0  0  0  0  0  0  0  0
    8.3875  -18.8549   23.5948 O   0  0  0  0  0  0  0  0  0  0  0  0
    7.7162  -17.5308   27.1895 C   0  0  0  0  0  0  0  0  0  0  0  0
    8.7603  -17.7538   28.0773 C   0  0  0  0  0  0  0  0  0  0  0  0
    8.8943  -13.8928   18.2901 N   0  0  0  0  0  0  0  0  0  0  0  0
    8.0626  -13.2314   19.2713 C   0  0  0  0  0  0  0  0  0  0  0  0
    8.2029  -12.0776   19.6056 N   0  0  0  0  0  0  0  0  0  0  0  0
    7.0166  -14.0228   19.8680 N   0  0  0  0  0  0  0  0  0  0  0  0
    7.0263  -15.4455   19.6004 C   0  0  0  0  0  0  0  0  0  0  0  0
    7.2630  -16.2398   20.8546 C   0  0  0  0  0  0  0  0  0  0  0  0
    7.8914  -15.3991   21.8920 C   0  0  0  0  0  0  0  0  0  0  0  0
    8.2908  -16.2042   23.1383 C   0  0  2  0  0  0  0  0  0  0  0  0
    7.1379  -16.9356   23.5859 N   0  0  0  0  0  0  0  0  0  0  0  0
    8.8556  -15.3698   24.1722 C   0  0  0  0  0  0  0  0  0  0  0  0
    8.1869  -14.4543   24.7770 O   0  0  0  0  0  0  0  0  0  0  0  0
    8.2405  -11.1786   19.8475 N   0  0  0  0  0  0  0  0  0  0  0  0
   10.1994  -15.5217   24.5818 C   0  0  1  0  0  0  0  0  0  0  0  0
   10.5865  -15.3746   25.9918 C   0  0  0  0  0  0  0  0  0  0  0  0
    9.4007  -15.6536   26.8762 C   0  0  0  0  0  0  0  0  0  0  0  0
    8.4320  -14.5537   26.8311 C   0  0  0  0  0  0  0  0  0  0  0  0
    8.6949  -13.3285   27.4097 C   0  0  0  0  0  0  0  0  0  0  0  0
    7.7659  -12.2861   27.3080 C   0  0  0  0  0  0  0  0  0  0  0  0
    6.5717  -12.4265   26.6419 C   0  0  0  0  0  0  0  0  0  0  0  0
    6.2904  -13.6497   26.0594 C   0  0  0  0  0  0  0  0  0  0  0  0
    7.2096  -14.6613   26.1653 C   0  0  0  0  0  0  0  0  0  0  0  0
   11.7849  -16.1669   26.2802 O   0  0  0  0  0  0  0  0  0  0  0  0
   12.4137  -17.0170   25.3932 O   0  0  0  0  0  0  0  0  0  0  0  0
  2  1  1  0
  3  2  2  0
  4  3  1  0
  5 11  1  0
  5  4  2  0
  6  5  1  0
  7  6  1  0
  7  8  1  1
  9  7  1  0
 10  9  2  0
 11 12  2  0
 12  2  1  0
 13 14  1  0
 14 16  1  0
 15 14  2  0
 16 17  1  0
 17 18  1  0
 18 19  1  0
 20 19  1  6
 20 22  1  0
 20 21  1  0
 21  9  1  0
 22 24  1  0
 23 22  2  0
 24 25  1  0
 25 26  1  1
 26 27  1  0
 27 28  2  0
 28 29  1  0
 30 29  2  0
 31 30  1  0
 32 27  1  0
 32 31  2  0
 33 34  1  0
 33 25  1  0
 35 33  2  0
M  END
$$$$
