YRF.pdb
     RDKit          3D

 35 36  0  0  1  0  0  0  0  0999 V2000
    9.0541  -10.8705   21.8229 O   0  0  0  0  0  0  0  0  0  0  0  0
    8.4355  -12.0557   21.5109 C   0  0  0  0  0  0  0  0  0  0  0  0
    8.5322  -12.5754   20.2206 C   0  0  0  0  0  0  0  0  0  0  0  0
    7.9216  -13.7527   19.8959 C   0  0  0  0  0  0  0  0  0  0  0  0
    7.1986  -14.4554   20.8271 C   0  0  0  0  0  0  0  0  0  0  0  0
    6.5536  -15.7295   20.4107 C   0  0  0  0  0  0  0  0  0  0  0  0
    7.6323  -16.8077   20.2383 C   0  0  2  0  0  0  0  0  0  0  0  0
    6.9087  -17.9597   19.7140 N   0  0  0  0  0  0  0  0  0  0  0  0
    8.1561  -17.0586   21.6072 C   0  0  0  0  0  0  0  0  0  0  0  0
    7.4271  -17.4625   22.5046 O   0  0  0  0  0  0  0  0  0  0  0  0
    7.0887  -13.9712   22.0912 C   0  0  0  0  0  0  0  0  0  0  0  0
    7.7108  -12.7733   22.4169 C   0  0  0  0  0  0  0  0  0  0  0  0
   13.7163  -21.2799   21.9069 N   0  0  0  0  0  0  0  0  0  0  0  0
   13.1046  -21.2673   20.5964 C   0  0  0  0  0  0  0  0  0  0  0  0
   12.9869  -22.2478   19.8983 N   0  0  0  0  0  0  0  0  0  0  0  0
   12.6200  -19.9951   20.1238 N   0  0  0  0  0  0  0  0  0  0  0  0
   12.6100  -18.8970   21.0669 C   0  0  0  0  0  0  0  0  0  0  0  0
   11.4754  -19.0219   22.0452 C   0  0  0  0  0  0  0  0  0  0  0  0
   11.4520  -17.8680   22.9647 C   0  0  0  0  0  0  0  0  0  0  0  0
   10.0344  -17.3147   23.1774 C   0  0  2  0  0  0  0  0  0  0  0  0
    9.5486  -16.8337   21.9136 N   0  0  0  0  0  0  0  0  0  0  0  0
    9.9882  -16.3076   24.2105 C   0  0  0  0  0  0  0  0  0  0  0  0
   10.6090  -15.1858   24.1239 O   0  0  0  0  0  0  0  0  0  0  0  0
   12.8820  -22.9583   19.3047 N   0  0  0  0  0  0  0  0  0  0  0  0
    9.2410  -16.5068   25.3932 C   0  0  1  0  0  0  0  0  0  0  0  0
    9.5231  -15.7338   26.6109 C   0  0  0  0  0  0  0  0  0  0  0  0
    8.2303  -15.2971   27.2465 C   0  0  0  0  0  0  0  0  0  0  0  0
    7.6355  -14.1689   26.5230 C   0  0  0  0  0  0  0  0  0  0  0  0
    8.2555  -12.9374   26.4591 C   0  0  0  0  0  0  0  0  0  0  0  0
    7.6810  -11.8955   25.7212 C   0  0  0  0  0  0  0  0  0  0  0  0
    6.4972  -12.0426   25.0383 C   0  0  0  0  0  0  0  0  0  0  0  0
    5.8603  -13.2697   25.0951 C   0  0  0  0  0  0  0  0  0  0  0  0
    6.4346  -14.2816   25.8200 C   0  0  0  0  0  0  0  0  0  0  0  0
   10.4356  -16.4727   27.4877 O   0  0  0  0  0  0  0  0  0  0  0  0
   11.2006  -15.9189   28.4941 O   0  0  0  0  0  0  0  0  0  0  0  0
  2  1  1  0
  3  2  2  0
  4  3  1  0
  5 11  1  0
  5  4  2  0
  6  5  1  0
  7  6  1  0
  7  8  1  1
  9  7  1  0
 10  9  2  0
 11 12  2  0
 12  2  1  0
 13 14  1  0
 14 16  1  0
 15 14  2  0
 16 17  1  0
 17 18  1  0
 18 19  1  0
 20 19  1  6
 20 22  1  0
 20 21  1  0
 21  9  1  0
 22 24  1  0
 23 22  2  0
 24 25  1  0
 25 26  1  6
 26 27  1  0
 27 28  2  0
 28 29  1  0
 30 29  2  0
 31 30  1  0
 32 27  1  0
 32 31  2  0
 33 34  1  0
 33 25  1  0
 35 33  2  0
M  END
$$$$
