YRF.pdb
     RDKit          3D

 35 36  0  0  1  0  0  0  0  0999 V2000
   11.6480  -12.5756   18.6522 O   0  0  0  0  0  0  0  0  0  0  0  0
   10.4651  -13.1666   19.0211 C   0  0  0  0  0  0  0  0  0  0  0  0
   10.4568  -14.1632   19.9964 C   0  0  0  0  0  0  0  0  0  0  0  0
    9.2879  -14.7602   20.3727 C   0  0  0  0  0  0  0  0  0  0  0  0
    8.0926  -14.3970   19.8043 C   0  0  0  0  0  0  0  0  0  0  0  0
    6.8541  -15.0873   20.2541 C   0  0  0  0  0  0  0  0  0  0  0  0
    6.9870  -16.5914   19.9788 C   0  0  2  0  0  0  0  0  0  0  0  0
    5.7261  -16.9534   19.3428 N   0  0  0  0  0  0  0  0  0  0  0  0
    7.1333  -17.2221   21.3176 C   0  0  0  0  0  0  0  0  0  0  0  0
    6.1605  -17.4428   22.0280 O   0  0  0  0  0  0  0  0  0  0  0  0
    8.0729  -13.4289   18.8520 C   0  0  0  0  0  0  0  0  0  0  0  0
    9.2640  -12.8249   18.4719 C   0  0  0  0  0  0  0  0  0  0  0  0
   12.3554  -22.4717   20.4892 N   0  0  0  0  0  0  0  0  0  0  0  0
   11.8797  -21.2292   19.9219 C   0  0  0  0  0  0  0  0  0  0  0  0
   12.3761  -20.6954   18.9569 N   0  0  0  0  0  0  0  0  0  0  0  0
   10.7481  -20.6164   20.5704 N   0  0  0  0  0  0  0  0  0  0  0  0
   10.1417  -21.3383   21.6689 C   0  0  0  0  0  0  0  0  0  0  0  0
    9.0126  -20.5588   22.2831 C   0  0  0  0  0  0  0  0  0  0  0  0
    9.5273  -19.3804   23.0071 C   0  0  0  0  0  0  0  0  0  0  0  0
    8.4937  -18.2468   23.0947 C   0  0  2  0  0  0  0  0  0  0  0  0
    8.4357  -17.5956   21.8152 N   0  0  0  0  0  0  0  0  0  0  0  0
    8.7760  -17.3295   24.1730 C   0  0  0  0  0  0  0  0  0  0  0  0
    9.6328  -16.3768   24.0763 O   0  0  0  0  0  0  0  0  0  0  0  0
   12.6987  -20.2428   18.2091 N   0  0  0  0  0  0  0  0  0  0  0  0
    8.1096  -17.4331   25.4146 C   0  0  1  0  0  0  0  0  0  0  0  0
    8.3702  -16.4775   26.5003 C   0  0  0  0  0  0  0  0  0  0  0  0
    7.0658  -15.9834   27.0665 C   0  0  0  0  0  0  0  0  0  0  0  0
    7.0788  -14.5277   27.2422 C   0  0  0  0  0  0  0  0  0  0  0  0
    5.9304  -13.7707   27.1274 C   0  0  0  0  0  0  0  0  0  0  0  0
    5.9713  -12.3886   27.3466 C   0  0  0  0  0  0  0  0  0  0  0  0
    7.1310  -11.7300   27.6798 C   0  0  0  0  0  0  0  0  0  0  0  0
    8.2923  -12.4733   27.7951 C   0  0  0  0  0  0  0  0  0  0  0  0
    8.2377  -13.8260   27.5793 C   0  0  0  0  0  0  0  0  0  0  0  0
    9.3010  -17.0509   27.4761 O   0  0  0  0  0  0  0  0  0  0  0  0
   10.2428  -16.3426   28.1943 O   0  0  0  0  0  0  0  0  0  0  0  0
  2  1  1  0
  3  2  2  0
  4  3  1  0
  5 11  1  0
  5  4  2  0
  6  5  1  0
  7  6  1  0
  7  8  1  1
  9  7  1  0
 10  9  2  0
 11 12  2  0
 12  2  1  0
 13 14  1  0
 14 16  1  0
 15 14  2  0
 16 17  1  0
 17 18  1  0
 18 19  1  0
 20 19  1  6
 20 22  1  0
 20 21  1  0
 21  9  1  0
 22 24  1  0
 23 22  2  0
 24 25  1  0
 25 26  1  1
 26 27  1  0
 27 28  2  0
 28 29  1  0
 30 29  2  0
 31 30  1  0
 32 27  1  0
 32 31  2  0
 33 34  1  0
 33 25  1  0
 35 33  2  0
M  END
$$$$
