YRF.pdb
     RDKit          3D

 35 36  0  0  1  0  0  0  0  0999 V2000
    8.8652  -12.7627   16.6922 O   0  0  0  0  0  0  0  0  0  0  0  0
    8.3179  -13.2102   17.8690 C   0  0  0  0  0  0  0  0  0  0  0  0
    9.0305  -13.0883   19.0614 C   0  0  0  0  0  0  0  0  0  0  0  0
    8.4990  -13.5296   20.2391 C   0  0  0  0  0  0  0  0  0  0  0  0
    7.2528  -14.1030   20.2824 C   0  0  0  0  0  0  0  0  0  0  0  0
    6.7305  -14.5674   21.5956 C   0  0  0  0  0  0  0  0  0  0  0  0
    7.1629  -16.0223   21.8240 C   0  0  2  0  0  0  0  0  0  0  0  0
    6.4328  -16.7774   20.8129 N   0  0  0  0  0  0  0  0  0  0  0  0
    6.7065  -16.3539   23.1999 C   0  0  0  0  0  0  0  0  0  0  0  0
    5.5493  -16.6856   23.4251 O   0  0  0  0  0  0  0  0  0  0  0  0
    6.5377  -14.2337   19.1352 C   0  0  0  0  0  0  0  0  0  0  0  0
    7.0823  -13.7840   17.9397 C   0  0  0  0  0  0  0  0  0  0  0  0
    7.3559  -23.2856   25.3406 N   0  0  0  0  0  0  0  0  0  0  0  0
    7.1073  -22.6376   24.0717 C   0  0  0  0  0  0  0  0  0  0  0  0
    7.5428  -23.0346   23.0156 N   0  0  0  0  0  0  0  0  0  0  0  0
    6.2914  -21.4502   24.1035 N   0  0  0  0  0  0  0  0  0  0  0  0
    6.3692  -20.6233   25.2891 C   0  0  0  0  0  0  0  0  0  0  0  0
    7.6738  -19.8794   25.3567 C   0  0  0  0  0  0  0  0  0  0  0  0
    7.6455  -18.6982   24.4724 C   0  0  0  0  0  0  0  0  0  0  0  0
    7.5895  -17.3781   25.2567 C   0  0  2  0  0  0  0  0  0  0  0  0
    7.6245  -16.2958   24.3123 N   0  0  0  0  0  0  0  0  0  0  0  0
    8.6345  -17.2847   26.2483 C   0  0  0  0  0  0  0  0  0  0  0  0
    8.8918  -18.2248   27.0857 O   0  0  0  0  0  0  0  0  0  0  0  0
    7.8102  -23.3382   22.1762 N   0  0  0  0  0  0  0  0  0  0  0  0
    9.4458  -16.1323   26.3495 C   0  0  2  0  0  0  0  0  0  0  0  0
    9.7009  -15.4928   27.6478 C   0  0  0  0  0  0  0  0  0  0  0  0
    8.4347  -14.8603   28.1604 C   0  0  0  0  0  0  0  0  0  0  0  0
    8.0275  -13.7283   27.3221 C   0  0  0  0  0  0  0  0  0  0  0  0
    6.8355  -13.0632   27.5267 C   0  0  0  0  0  0  0  0  0  0  0  0
    6.4996  -11.9575   26.7364 C   0  0  0  0  0  0  0  0  0  0  0  0
    7.3211  -11.4887   25.7389 C   0  0  0  0  0  0  0  0  0  0  0  0
    8.5182  -12.1464   25.5178 C   0  0  0  0  0  0  0  0  0  0  0  0
    8.8353  -13.2266   26.3000 C   0  0  0  0  0  0  0  0  0  0  0  0
   10.3482  -16.4345   28.5651 O   0  0  0  0  0  0  0  0  0  0  0  0
   10.5286  -17.7826   28.3308 O   0  0  0  0  0  0  0  0  0  0  0  0
  2  1  1  0
  3  2  2  0
  4  3  1  0
  5 11  1  0
  5  4  2  0
  6  5  1  0
  7  6  1  0
  7  8  1  6
  9  7  1  0
 10  9  2  0
 11 12  2  0
 12  2  1  0
 13 14  1  0
 14 16  1  0
 15 14  2  0
 16 17  1  0
 17 18  1  0
 18 19  1  0
 20 19  1  6
 20 22  1  0
 20 21  1  0
 21  9  1  0
 22 24  1  0
 23 22  2  0
 24 25  1  0
 25 26  1  6
 26 27  1  0
 27 28  2  0
 28 29  1  0
 30 29  2  0
 31 30  1  0
 32 27  1  0
 32 31  2  0
 33 34  1  0
 33 25  1  0
 35 33  2  0
M  END
$$$$
