YRF.pdb
     RDKit          3D

 35 36  0  0  1  0  0  0  0  0999 V2000
    2.9594  -24.4784   26.1839 O   0  0  0  0  0  0  0  0  0  0  0  0
    3.7077  -23.4473   25.6727 C   0  0  0  0  0  0  0  0  0  0  0  0
    5.0108  -23.2398   26.1235 C   0  0  0  0  0  0  0  0  0  0  0  0
    5.7665  -22.2179   25.6245 C   0  0  0  0  0  0  0  0  0  0  0  0
    5.2668  -21.3696   24.6683 C   0  0  0  0  0  0  0  0  0  0  0  0
    6.1381  -20.2729   24.1673 C   0  0  0  0  0  0  0  0  0  0  0  0
    6.2866  -20.4025   22.6452 C   0  0  2  0  0  0  0  0  0  0  0  0
    7.0732  -21.6163   22.4626 N   0  0  0  0  0  0  0  0  0  0  0  0
    7.0341  -19.1889   22.2210 C   0  0  0  0  0  0  0  0  0  0  0  0
    8.2283  -19.0599   22.4598 O   0  0  0  0  0  0  0  0  0  0  0  0
    4.0004  -21.5497   24.2120 C   0  0  0  0  0  0  0  0  0  0  0  0
    3.2352  -22.5899   24.7226 C   0  0  0  0  0  0  0  0  0  0  0  0
    9.7815  -13.8418   18.1679 N   0  0  0  0  0  0  0  0  0  0  0  0
    8.4778  -14.1438   17.6193 C   0  0  0  0  0  0  0  0  0  0  0  0
    8.2336  -14.1651   16.4350 N   0  0  0  0  0  0  0  0  0  0  0  0
    7.4303  -14.4287   18.5669 N   0  0  0  0  0  0  0  0  0  0  0  0
    7.7556  -14.3068   19.9722 C   0  0  0  0  0  0  0  0  0  0  0  0
    6.5339  -14.4579   20.8351 C   0  0  0  0  0  0  0  0  0  0  0  0
    6.0405  -15.8482   20.7995 C   0  0  0  0  0  0  0  0  0  0  0  0
    6.9328  -16.8091   21.6004 C   0  0  2  0  0  0  0  0  0  0  0  0
    6.3658  -18.1261   21.5087 N   0  0  0  0  0  0  0  0  0  0  0  0
    7.1170  -16.3770   22.9654 C   0  0  0  0  0  0  0  0  0  0  0  0
    6.1427  -16.2210   23.7886 O   0  0  0  0  0  0  0  0  0  0  0  0
    7.9988  -14.1267   15.5341 N   0  0  0  0  0  0  0  0  0  0  0  0
    8.4045  -16.0998   23.4773 C   0  0  1  0  0  0  0  0  0  0  0  0
    8.6070  -15.0810   24.5170 C   0  0  0  0  0  0  0  0  0  0  0  0
    7.3845  -14.9973   25.3915 C   0  0  0  0  0  0  0  0  0  0  0  0
    7.5403  -13.9719   26.4280 C   0  0  0  0  0  0  0  0  0  0  0  0
    8.3402  -14.1721   27.5350 C   0  0  0  0  0  0  0  0  0  0  0  0
    8.5019  -13.1539   28.4822 C   0  0  0  0  0  0  0  0  0  0  0  0
    7.8864  -11.9308   28.3608 C   0  0  0  0  0  0  0  0  0  0  0  0
    7.0778  -11.7148   27.2589 C   0  0  0  0  0  0  0  0  0  0  0  0
    6.9294  -12.7198   26.3384 C   0  0  0  0  0  0  0  0  0  0  0  0
    9.8696  -15.3131   25.2237 O   0  0  0  0  0  0  0  0  0  0  0  0
   10.2323  -16.4899   25.8469 O   0  0  0  0  0  0  0  0  0  0  0  0
  2  1  1  0
  3  2  2  0
  4  3  1  0
  5 11  1  0
  5  4  2  0
  6  5  1  0
  7  6  1  0
  7  8  1  1
  9  7  1  0
 10  9  2  0
 11 12  2  0
 12  2  1  0
 13 14  1  0
 14 16  1  0
 15 14  2  0
 16 17  1  0
 17 18  1  0
 18 19  1  0
 20 19  1  6
 20 22  1  0
 20 21  1  0
 21  9  1  0
 22 24  1  0
 23 22  2  0
 24 25  1  0
 25 26  1  1
 26 27  1  0
 27 28  2  0
 28 29  1  0
 30 29  2  0
 31 30  1  0
 32 27  1  0
 32 31  2  0
 33 34  1  0
 33 25  1  0
 35 33  2  0
M  END
$$$$
