YRF.pdb
     RDKit          3D

 35 36  0  0  1  0  0  0  0  0999 V2000
    8.4702  -12.3285   16.8990 O   0  0  0  0  0  0  0  0  0  0  0  0
    8.2330  -12.8847   18.1315 C   0  0  0  0  0  0  0  0  0  0  0  0
    9.2434  -13.5881   18.7863 C   0  0  0  0  0  0  0  0  0  0  0  0
    9.0217  -14.1472   20.0121 C   0  0  0  0  0  0  0  0  0  0  0  0
    7.8027  -14.0325   20.6322 C   0  0  0  0  0  0  0  0  0  0  0  0
    7.6222  -14.6671   21.9655 C   0  0  0  0  0  0  0  0  0  0  0  0
    7.7418  -16.1902   21.8191 C   0  0  2  0  0  0  0  0  0  0  0  0
    6.3980  -16.6232   21.4554 N   0  0  0  0  0  0  0  0  0  0  0  0
    8.1369  -16.6822   23.1657 C   0  0  0  0  0  0  0  0  0  0  0  0
    7.3597  -16.6443   24.1115 O   0  0  0  0  0  0  0  0  0  0  0  0
    6.8015  -13.3525   20.0161 C   0  0  0  0  0  0  0  0  0  0  0  0
    7.0312  -12.7860   18.7693 C   0  0  0  0  0  0  0  0  0  0  0  0
   14.0257  -21.8413   25.6404 N   0  0  0  0  0  0  0  0  0  0  0  0
   13.0882  -22.0960   24.5690 C   0  0  0  0  0  0  0  0  0  0  0  0
   13.2112  -22.9905   23.7644 N   0  0  0  0  0  0  0  0  0  0  0  0
   11.9537  -21.2118   24.4818 N   0  0  0  0  0  0  0  0  0  0  0  0
   11.2882  -20.8623   25.7189 C   0  0  0  0  0  0  0  0  0  0  0  0
   11.1995  -19.3719   25.8943 C   0  0  0  0  0  0  0  0  0  0  0  0
   10.9062  -18.7132   24.6067 C   0  0  0  0  0  0  0  0  0  0  0  0
    9.7586  -17.6972   24.7145 C   0  0  2  0  0  0  0  0  0  0  0  0
    9.4555  -17.2239   23.3922 N   0  0  0  0  0  0  0  0  0  0  0  0
   10.0598  -16.6252   25.6332 C   0  0  0  0  0  0  0  0  0  0  0  0
   10.8039  -15.6246   25.3228 O   0  0  0  0  0  0  0  0  0  0  0  0
   13.2335  -23.6790   23.1370 N   0  0  0  0  0  0  0  0  0  0  0  0
    9.5396  -16.6201   26.9470 C   0  0  1  0  0  0  0  0  0  0  0  0
    9.9493  -15.6014   27.9238 C   0  0  0  0  0  0  0  0  0  0  0  0
    8.7328  -14.9060   28.4737 C   0  0  0  0  0  0  0  0  0  0  0  0
    8.1666  -13.9707   27.4966 C   0  0  0  0  0  0  0  0  0  0  0  0
    7.1741  -14.3507   26.6159 C   0  0  0  0  0  0  0  0  0  0  0  0
    6.6246  -13.4191   25.7271 C   0  0  0  0  0  0  0  0  0  0  0  0
    7.0361  -12.1081   25.6871 C   0  0  0  0  0  0  0  0  0  0  0  0
    8.0331  -11.7112   26.5606 C   0  0  0  0  0  0  0  0  0  0  0  0
    8.5614  -12.6334   27.4266 C   0  0  0  0  0  0  0  0  0  0  0  0
   10.8466  -16.1830   28.9258 O   0  0  0  0  0  0  0  0  0  0  0  0
   11.5476  -15.4730   29.8792 O   0  0  0  0  0  0  0  0  0  0  0  0
  2  1  1  0
  3  2  2  0
  4  3  1  0
  5 11  1  0
  5  4  2  0
  6  5  1  0
  7  6  1  0
  7  8  1  1
  9  7  1  0
 10  9  2  0
 11 12  2  0
 12  2  1  0
 13 14  1  0
 14 16  1  0
 15 14  2  0
 16 17  1  0
 17 18  1  0
 18 19  1  0
 20 19  1  6
 20 22  1  0
 20 21  1  0
 21  9  1  0
 22 24  1  0
 23 22  2  0
 24 25  1  0
 25 26  1  1
 26 27  1  0
 27 28  2  0
 28 29  1  0
 30 29  2  0
 31 30  1  0
 32 27  1  0
 32 31  2  0
 33 34  1  0
 33 25  1  0
 35 33  2  0
M  END
$$$$
