YRF.pdb
     RDKit          3D

 35 36  0  0  1  0  0  0  0  0999 V2000
    9.5864  -12.8091   16.4829 O   0  0  0  0  0  0  0  0  0  0  0  0
    8.9442  -13.2478   17.6142 C   0  0  0  0  0  0  0  0  0  0  0  0
    7.5964  -12.9502   17.8119 C   0  0  0  0  0  0  0  0  0  0  0  0
    6.9450  -13.3793   18.9325 C   0  0  0  0  0  0  0  0  0  0  0  0
    7.5961  -14.1134   19.8922 C   0  0  0  0  0  0  0  0  0  0  0  0
    6.8325  -14.5484   21.0924 C   0  0  0  0  0  0  0  0  0  0  0  0
    6.6418  -16.0706   21.0443 C   0  0  2  0  0  0  0  0  0  0  0  0
    5.3950  -16.2539   20.3114 N   0  0  0  0  0  0  0  0  0  0  0  0
    6.5170  -16.4936   22.4645 C   0  0  0  0  0  0  0  0  0  0  0  0
    5.4656  -16.3623   23.0786 O   0  0  0  0  0  0  0  0  0  0  0  0
    8.9090  -14.4170   19.7241 C   0  0  0  0  0  0  0  0  0  0  0  0
    9.5677  -13.9781   18.5832 C   0  0  0  0  0  0  0  0  0  0  0  0
    7.3390  -23.9418   24.9710 N   0  0  0  0  0  0  0  0  0  0  0  0
    7.3703  -23.2669   26.2498 C   0  0  0  0  0  0  0  0  0  0  0  0
    7.1166  -23.8058   27.3025 N   0  0  0  0  0  0  0  0  0  0  0  0
    7.7257  -21.8705   26.2330 N   0  0  0  0  0  0  0  0  0  0  0  0
    6.6770  -20.9228   25.9207 C   0  0  0  0  0  0  0  0  0  0  0  0
    7.1853  -19.5084   25.9549 C   0  0  0  0  0  0  0  0  0  0  0  0
    7.4055  -19.0015   24.5866 C   0  0  0  0  0  0  0  0  0  0  0  0
    7.4425  -17.4666   24.5274 C   0  0  2  0  0  0  0  0  0  0  0  0
    7.6401  -17.0771   23.1586 N   0  0  0  0  0  0  0  0  0  0  0  0
    8.4358  -16.9075   25.4134 C   0  0  0  0  0  0  0  0  0  0  0  0
    9.6939  -16.9195   25.1522 O   0  0  0  0  0  0  0  0  0  0  0  0
    6.8714  -24.2606   28.0778 N   0  0  0  0  0  0  0  0  0  0  0  0
    8.0677  -16.3044   26.6370 C   0  0  2  0  0  0  0  0  0  0  0  0
    9.0805  -15.7574   27.5508 C   0  0  0  0  0  0  0  0  0  0  0  0
    8.5165  -14.5683   28.2815 C   0  0  0  0  0  0  0  0  0  0  0  0
    8.0743  -13.5290   27.3464 C   0  0  0  0  0  0  0  0  0  0  0  0
    8.9604  -12.6349   26.7803 C   0  0  0  0  0  0  0  0  0  0  0  0
    8.5103  -11.6845   25.8561 C   0  0  0  0  0  0  0  0  0  0  0  0
    7.1928  -11.5954   25.4741 C   0  0  0  0  0  0  0  0  0  0  0  0
    6.2904  -12.4817   26.0351 C   0  0  0  0  0  0  0  0  0  0  0  0
    6.7449  -13.4082   26.9375 C   0  0  0  0  0  0  0  0  0  0  0  0
    9.6278  -16.8163   28.4031 O   0  0  0  0  0  0  0  0  0  0  0  0
    9.2710  -18.1485   28.3515 O   0  0  0  0  0  0  0  0  0  0  0  0
  2  1  1  0
  3  2  2  0
  4  3  1  0
  5 11  1  0
  5  4  2  0
  6  5  1  0
  7  6  1  0
  7  8  1  6
  9  7  1  0
 10  9  2  0
 11 12  2  0
 12  2  1  0
 13 14  1  0
 14 16  1  0
 15 14  2  0
 16 17  1  0
 17 18  1  0
 18 19  1  0
 20 19  1  6
 20 22  1  0
 20 21  1  0
 21  9  1  0
 22 24  1  0
 23 22  2  0
 24 25  1  0
 25 26  1  6
 26 27  1  0
 27 28  2  0
 28 29  1  0
 30 29  2  0
 31 30  1  0
 32 27  1  0
 32 31  2  0
 33 34  1  0
 33 25  1  0
 35 33  2  0
M  END
$$$$
