TEQ.pdb
     RDKit          3D

 26 25  0  0  1  0  0  0  0  0999 V2000
   14.6787   -6.2259   -8.9497 C   0  0  0  0  0  0  0  0  0  0  0  0
   14.2338   -7.5653   -8.3863 C   0  0  1  0  0  0  0  0  0  0  0  0
   13.1697   -7.3488   -7.5393 O   0  0  0  0  0  0  0  0  0  0  0  0
   13.8595   -8.5180   -9.5260 C   0  0  2  0  0  0  0  0  0  0  0  0
   13.5362   -9.7947   -8.8919 N   0  0  0  0  0  0  0  0  0  0  0  0
   15.0714   -8.6562  -10.3876 C   0  0  0  0  0  0  0  0  0  0  0  0
   16.0055   -9.4281  -10.0510 O   0  0  0  0  0  0  0  0  0  0  0  0
   15.2302   -7.9420  -11.6016 N   0  0  0  0  0  0  0  0  0  0  0  0
   16.3909   -8.1159  -12.4225 C   0  0  1  0  0  0  0  0  0  0  0  0
   15.9905   -8.7446  -13.7155 C   0  0  0  0  0  0  0  0  0  0  0  0
   15.0467   -7.9356  -14.5367 C   0  0  0  0  0  0  0  0  0  0  0  0
   14.8410   -8.6116  -15.8428 C   0  0  0  0  0  0  0  0  0  0  0  0
   15.2880   -8.0877  -16.9013 O   0  0  0  0  0  0  0  0  0  0  0  0
   17.1442   -6.8464  -12.6293 C   0  0  0  0  0  0  0  0  0  0  0  0
   16.4787   -5.7857  -12.6968 O   0  0  0  0  0  0  0  0  0  0  0  0
   14.1594   -9.8237  -15.9336 O   0  0  0  0  0  0  0  0  0  0  0  0
   21.7678   -4.8725   -9.3180 N   0  0  0  0  0  0  0  0  0  0  0  0
   21.9129   -6.0083  -10.1422 C   0  0  0  0  0  0  0  0  0  0  0  0
   22.8235   -6.8444   -9.8533 O   0  0  0  0  0  0  0  0  0  0  0  0
   21.0585   -6.2530  -11.2938 C   0  0  0  0  0  0  0  0  0  0  0  0
   20.0548   -5.2498  -11.6655 C   0  0  0  0  0  0  0  0  0  0  0  0
   19.2868   -5.5009  -12.9066 C   0  0  2  0  0  0  0  0  0  0  0  0
   18.5409   -6.7796  -12.7509 N   0  0  0  0  0  0  0  0  0  0  0  0
   20.1133   -5.6581  -14.0928 C   0  0  0  0  0  0  0  0  0  0  0  0
   20.1576   -6.8330  -14.8235 O   0  0  0  0  0  0  0  0  0  0  0  0
   20.8392   -4.7235  -14.5031 O   0  0  0  0  0  0  0  0  0  0  0  0
  2  1  1  6
  2  3  1  0
  4  6  1  0
  4  2  1  0
  4  5  1  1
  6  8  1  0
  7  6  2  0
  8  9  1  0
  9 14  1  0
  9 10  1  6
 11 10  1  0
 12 11  1  0
 13 12  2  0
 14 15  2  0
 14 23  1  0
 16 12  1  0
 17 18  1  0
 18 19  2  0
 20 18  1  0
 20 21  1  0
 22 21  1  1
 22 24  1  0
 23 22  1  0
 24 25  1  0
 26 24  2  0
M  END
$$$$
