TEQ.pdb
     RDKit          3D

 26 25  0  0  1  0  0  0  0  0999 V2000
   24.4583  -11.8829  -19.4538 C   0  0  0  0  0  0  0  0  0  0  0  0
   23.5935  -13.0351  -19.9372 C   0  0  1  0  0  0  0  0  0  0  0  0
   24.4204  -14.0418  -20.3838 O   0  0  0  0  0  0  0  0  0  0  0  0
   22.6802  -13.5189  -18.8065 C   0  0  2  0  0  0  0  0  0  0  0  0
   21.9428  -14.6596  -19.3464 N   0  0  0  0  0  0  0  0  0  0  0  0
   21.7471  -12.3951  -18.4958 C   0  0  0  0  0  0  0  0  0  0  0  0
   20.6551  -12.2875  -19.1103 O   0  0  0  0  0  0  0  0  0  0  0  0
   22.0351  -11.4128  -17.5152 N   0  0  0  0  0  0  0  0  0  0  0  0
   21.0653  -10.4285  -17.1387 C   0  0  1  0  0  0  0  0  0  0  0  0
   19.8153  -11.1126  -16.6949 C   0  0  0  0  0  0  0  0  0  0  0  0
   18.7110  -10.1962  -16.2946 C   0  0  0  0  0  0  0  0  0  0  0  0
   17.5406  -11.0060  -15.8710 C   0  0  0  0  0  0  0  0  0  0  0  0
   16.6067  -11.2400  -16.6883 O   0  0  0  0  0  0  0  0  0  0  0  0
   21.5781   -9.4807  -16.1089 C   0  0  0  0  0  0  0  0  0  0  0  0
   22.0383   -9.9725  -15.0511 O   0  0  0  0  0  0  0  0  0  0  0  0
   17.4432  -11.5214  -14.5800 O   0  0  0  0  0  0  0  0  0  0  0  0
   21.7994   -2.9657  -16.5886 N   0  0  0  0  0  0  0  0  0  0  0  0
   22.2959   -3.3069  -15.3128 C   0  0  0  0  0  0  0  0  0  0  0  0
   22.6530   -2.3660  -14.5388 O   0  0  0  0  0  0  0  0  0  0  0  0
   22.4036   -4.6846  -14.8585 C   0  0  0  0  0  0  0  0  0  0  0  0
   22.0275   -5.7699  -15.7709 C   0  0  0  0  0  0  0  0  0  0  0  0
   22.1216   -7.1501  -15.2423 C   0  0  2  0  0  0  0  0  0  0  0  0
   21.5714   -8.0854  -16.2613 N   0  0  0  0  0  0  0  0  0  0  0  0
   21.3491   -7.3740  -14.0307 C   0  0  0  0  0  0  0  0  0  0  0  0
   19.9906   -7.6394  -14.0478 O   0  0  0  0  0  0  0  0  0  0  0  0
   21.8893   -7.3252  -12.9017 O   0  0  0  0  0  0  0  0  0  0  0  0
  2  1  1  1
  2  3  1  0
  4  6  1  0
  4  2  1  0
  4  5  1  6
  6  8  1  0
  7  6  2  0
  8  9  1  0
  9 14  1  0
  9 10  1  1
 11 10  1  0
 12 11  1  0
 13 12  2  0
 14 15  2  0
 14 23  1  0
 16 12  1  0
 17 18  1  0
 18 19  2  0
 20 18  1  0
 20 21  1  0
 22 21  1  6
 22 24  1  0
 23 22  1  0
 24 25  1  0
 26 24  2  0
M  END
$$$$
