TEQ.pdb
     RDKit          3D

 26 25  0  0  1  0  0  0  0  0999 V2000
   25.7845  -26.7379  -18.2848 C   0  0  0  0  0  0  0  0  0  0  0  0
   26.7807  -27.5564  -17.4805 C   0  0  1  0  0  0  0  0  0  0  0  0
   27.0460  -28.7185  -18.1703 O   0  0  0  0  0  0  0  0  0  0  0  0
   28.0564  -26.7437  -17.2381 C   0  0  2  0  0  0  0  0  0  0  0  0
   28.8559  -27.5235  -16.2951 N   0  0  0  0  0  0  0  0  0  0  0  0
   27.6333  -25.4522  -16.6189 C   0  0  0  0  0  0  0  0  0  0  0  0
   27.5210  -25.3530  -15.3702 O   0  0  0  0  0  0  0  0  0  0  0  0
   27.3425  -24.2968  -17.3868 N   0  0  0  0  0  0  0  0  0  0  0  0
   27.0623  -23.0383  -16.7632 C   0  0  1  0  0  0  0  0  0  0  0  0
   27.6622  -21.9405  -17.5771 C   0  0  0  0  0  0  0  0  0  0  0  0
   29.0043  -21.4851  -17.1176 C   0  0  0  0  0  0  0  0  0  0  0  0
   29.4892  -20.4158  -18.0268 C   0  0  0  0  0  0  0  0  0  0  0  0
   29.1026  -19.2249  -17.8624 O   0  0  0  0  0  0  0  0  0  0  0  0
   25.6061  -22.8254  -16.5267 C   0  0  0  0  0  0  0  0  0  0  0  0
   24.8229  -23.1044  -17.4654 O   0  0  0  0  0  0  0  0  0  0  0  0
   30.3703  -20.6940  -19.0699 O   0  0  0  0  0  0  0  0  0  0  0  0
   20.1734  -20.0765  -12.7995 N   0  0  0  0  0  0  0  0  0  0  0  0
   21.5293  -20.4603  -12.7313 C   0  0  0  0  0  0  0  0  0  0  0  0
   22.3570  -19.6442  -12.2206 O   0  0  0  0  0  0  0  0  0  0  0  0
   22.0026  -21.7482  -13.2147 C   0  0  0  0  0  0  0  0  0  0  0  0
   23.3955  -21.8782  -13.6562 C   0  0  0  0  0  0  0  0  0  0  0  0
   23.6188  -22.1245  -15.0993 C   0  0  2  0  0  0  0  0  0  0  0  0
   25.0753  -22.3348  -15.3236 N   0  0  0  0  0  0  0  0  0  0  0  0
   23.2353  -21.0136  -15.9559 C   0  0  0  0  0  0  0  0  0  0  0  0
   21.9975  -20.9355  -16.5707 O   0  0  0  0  0  0  0  0  0  0  0  0
   24.0272  -20.0704  -16.1842 O   0  0  0  0  0  0  0  0  0  0  0  0
  2  1  1  6
  2  3  1  0
  4  6  1  0
  4  2  1  0
  4  5  1  1
  6  8  1  0
  7  6  2  0
  8  9  1  0
  9 14  1  0
  9 10  1  6
 11 10  1  0
 12 11  1  0
 13 12  2  0
 14 15  2  0
 14 23  1  0
 16 12  1  0
 17 18  1  0
 18 19  2  0
 20 18  1  0
 20 21  1  0
 22 21  1  1
 22 24  1  0
 23 22  1  0
 24 25  1  0
 26 24  2  0
M  END
$$$$
