TEQ.pdb
     RDKit          3D

 26 25  0  0  1  0  0  0  0  0999 V2000
   14.4377  -10.1328  -17.1197 C   0  0  0  0  0  0  0  0  0  0  0  0
   13.9991  -11.1274  -16.0578 C   0  0  1  0  0  0  0  0  0  0  0  0
   12.7038  -11.5090  -16.3281 O   0  0  0  0  0  0  0  0  0  0  0  0
   14.9468  -12.3309  -16.0397 C   0  0  2  0  0  0  0  0  0  0  0  0
   14.4176  -13.2432  -15.0277 N   0  0  0  0  0  0  0  0  0  0  0  0
   16.2874  -11.8174  -15.6284 C   0  0  0  0  0  0  0  0  0  0  0  0
   16.4357  -11.2466  -14.5176 O   0  0  0  0  0  0  0  0  0  0  0  0
   17.4371  -11.9426  -16.4481 N   0  0  0  0  0  0  0  0  0  0  0  0
   18.7302  -11.5363  -15.9857 C   0  0  1  0  0  0  0  0  0  0  0  0
   19.7690  -12.4276  -16.5806 C   0  0  0  0  0  0  0  0  0  0  0  0
   19.8690  -13.7749  -15.9525 C   0  0  0  0  0  0  0  0  0  0  0  0
   19.1706  -14.7626  -16.8137 C   0  0  0  0  0  0  0  0  0  0  0  0
   19.5557  -14.9465  -18.0023 O   0  0  0  0  0  0  0  0  0  0  0  0
   19.0105  -10.0970  -16.2535 C   0  0  0  0  0  0  0  0  0  0  0  0
   18.5373   -9.6036  -17.3047 O   0  0  0  0  0  0  0  0  0  0  0  0
   18.0882  -15.5017  -16.3404 O   0  0  0  0  0  0  0  0  0  0  0  0
   17.7791   -5.6956  -18.0577 N   0  0  0  0  0  0  0  0  0  0  0  0
   18.1261   -5.0137  -16.8724 C   0  0  0  0  0  0  0  0  0  0  0  0
   18.0009   -3.7504  -16.8507 O   0  0  0  0  0  0  0  0  0  0  0  0
   18.6097   -5.7034  -15.6864 C   0  0  0  0  0  0  0  0  0  0  0  0
   18.6298   -7.1702  -15.6706 C   0  0  0  0  0  0  0  0  0  0  0  0
   19.9599   -7.8198  -15.6282 C   0  0  2  0  0  0  0  0  0  0  0  0
   19.7671   -9.2782  -15.4008 N   0  0  0  0  0  0  0  0  0  0  0  0
   20.8128   -7.3526  -14.5470 C   0  0  0  0  0  0  0  0  0  0  0  0
   21.6840   -6.2862  -14.6888 O   0  0  0  0  0  0  0  0  0  0  0  0
   20.8009   -7.9123  -13.4265 O   0  0  0  0  0  0  0  0  0  0  0  0
  2  1  1  6
  2  3  1  0
  4  6  1  0
  4  2  1  0
  4  5  1  1
  6  8  1  0
  7  6  2  0
  8  9  1  0
  9 14  1  0
  9 10  1  6
 11 10  1  0
 12 11  1  0
 13 12  2  0
 14 15  2  0
 14 23  1  0
 16 12  1  0
 17 18  1  0
 18 19  2  0
 20 18  1  0
 20 21  1  0
 22 21  1  1
 22 24  1  0
 23 22  1  0
 24 25  1  0
 26 24  2  0
M  END
$$$$
