TEQ.pdb
     RDKit          3D

 26 25  0  0  1  0  0  0  0  0999 V2000
   18.0346  -12.5283  -15.0092 C   0  0  0  0  0  0  0  0  0  0  0  0
   18.0636  -12.2577  -16.5043 C   0  0  1  0  0  0  0  0  0  0  0  0
   16.9225  -12.7877  -17.0642 O   0  0  0  0  0  0  0  0  0  0  0  0
   18.1699  -10.7520  -16.7652 C   0  0  2  0  0  0  0  0  0  0  0  0
   18.0572  -10.5866  -18.2131 N   0  0  0  0  0  0  0  0  0  0  0  0
   19.5227  -10.3279  -16.2960 C   0  0  0  0  0  0  0  0  0  0  0  0
   19.8158  -10.3774  -15.0740 O   0  0  0  0  0  0  0  0  0  0  0  0
   20.5250   -9.8580  -17.1814 N   0  0  0  0  0  0  0  0  0  0  0  0
   21.7785   -9.3652  -16.6944 C   0  0  1  0  0  0  0  0  0  0  0  0
   22.8687   -9.7906  -17.6206 C   0  0  0  0  0  0  0  0  0  0  0  0
   23.0755  -11.2636  -17.7060 C   0  0  0  0  0  0  0  0  0  0  0  0
   24.2304  -11.5385  -18.5980 C   0  0  0  0  0  0  0  0  0  0  0  0
   24.6979  -10.6186  -19.3261 O   0  0  0  0  0  0  0  0  0  0  0  0
   21.7723   -7.8901  -16.4804 C   0  0  0  0  0  0  0  0  0  0  0  0
   21.4569   -7.1675  -17.4555 O   0  0  0  0  0  0  0  0  0  0  0  0
   24.8202  -12.7998  -18.6544 O   0  0  0  0  0  0  0  0  0  0  0  0
   17.6599   -4.7293  -15.5109 N   0  0  0  0  0  0  0  0  0  0  0  0
   18.6149   -3.8166  -15.0156 C   0  0  0  0  0  0  0  0  0  0  0  0
   18.2184   -2.6567  -14.6849 O   0  0  0  0  0  0  0  0  0  0  0  0
   20.0207   -4.1597  -14.8667 C   0  0  0  0  0  0  0  0  0  0  0  0
   20.4784   -5.4926  -15.2740 C   0  0  0  0  0  0  0  0  0  0  0  0
   21.8934   -5.8278  -14.9937 C   0  0  2  0  0  0  0  0  0  0  0  0
   22.0977   -7.2780  -15.2600 N   0  0  0  0  0  0  0  0  0  0  0  0
   22.2904   -5.6119  -13.6115 C   0  0  0  0  0  0  0  0  0  0  0  0
   22.2472   -6.6122  -12.6556 O   0  0  0  0  0  0  0  0  0  0  0  0
   22.6852   -4.4894  -13.2204 O   0  0  0  0  0  0  0  0  0  0  0  0
  2  1  1  1
  2  3  1  0
  4  6  1  0
  4  2  1  0
  4  5  1  6
  6  8  1  0
  7  6  2  0
  8  9  1  0
  9 14  1  0
  9 10  1  6
 11 10  1  0
 12 11  1  0
 13 12  2  0
 14 15  2  0
 14 23  1  0
 16 12  1  0
 17 18  1  0
 18 19  2  0
 20 18  1  0
 20 21  1  0
 22 21  1  1
 22 24  1  0
 23 22  1  0
 24 25  1  0
 26 24  2  0
M  END
$$$$
