TEQ.pdb
     RDKit          3D

 26 25  0  0  1  0  0  0  0  0999 V2000
   15.2797   -9.0952  -15.2349 C   0  0  0  0  0  0  0  0  0  0  0  0
   15.5957  -10.5285  -14.8412 C   0  0  1  0  0  0  0  0  0  0  0  0
   15.0741  -11.3679  -15.8002 O   0  0  0  0  0  0  0  0  0  0  0  0
   17.1096  -10.7135  -14.6964 C   0  0  2  0  0  0  0  0  0  0  0  0
   17.3125  -12.1249  -14.3753 N   0  0  0  0  0  0  0  0  0  0  0  0
   17.5416   -9.8523  -13.5555 C   0  0  0  0  0  0  0  0  0  0  0  0
   17.1961  -10.1348  -12.3797 O   0  0  0  0  0  0  0  0  0  0  0  0
   18.3449   -8.6978  -13.7321 N   0  0  0  0  0  0  0  0  0  0  0  0
   18.7820   -7.9156  -12.6148 C   0  0  1  0  0  0  0  0  0  0  0  0
   19.9417   -7.0716  -13.0275 C   0  0  0  0  0  0  0  0  0  0  0  0
   20.4999   -6.2083  -11.9492 C   0  0  0  0  0  0  0  0  0  0  0  0
   21.6901   -5.4907  -12.4723 C   0  0  0  0  0  0  0  0  0  0  0  0
   22.5114   -6.0924  -13.2195 O   0  0  0  0  0  0  0  0  0  0  0  0
   17.6847   -7.1023  -12.0180 C   0  0  0  0  0  0  0  0  0  0  0  0
   17.0040   -6.3930  -12.7965 O   0  0  0  0  0  0  0  0  0  0  0  0
   21.9287   -4.1543  -12.1574 O   0  0  0  0  0  0  0  0  0  0  0  0
   13.4375   -8.8589   -7.8621 N   0  0  0  0  0  0  0  0  0  0  0  0
   13.3214   -7.4529   -7.8766 C   0  0  0  0  0  0  0  0  0  0  0  0
   12.3875   -6.9230   -7.1991 O   0  0  0  0  0  0  0  0  0  0  0  0
   14.2305   -6.6010   -8.6275 C   0  0  0  0  0  0  0  0  0  0  0  0
   15.3648   -7.2100   -9.3305 C   0  0  0  0  0  0  0  0  0  0  0  0
   16.2652   -6.2931  -10.0665 C   0  0  2  0  0  0  0  0  0  0  0  0
   17.3797   -7.0902  -10.6480 N   0  0  0  0  0  0  0  0  0  0  0  0
   16.8881   -5.2783   -9.2317 C   0  0  0  0  0  0  0  0  0  0  0  0
   16.2546   -4.0944   -8.8950 O   0  0  0  0  0  0  0  0  0  0  0  0
   18.0475   -5.4325   -8.7837 O   0  0  0  0  0  0  0  0  0  0  0  0
  2  1  1  6
  2  3  1  0
  4  6  1  0
  4  2  1  0
  4  5  1  1
  6  8  1  0
  7  6  2  0
  8  9  1  0
  9 14  1  0
  9 10  1  6
 11 10  1  0
 12 11  1  0
 13 12  2  0
 14 15  2  0
 14 23  1  0
 16 12  1  0
 17 18  1  0
 18 19  2  0
 20 18  1  0
 20 21  1  0
 22 21  1  1
 22 24  1  0
 23 22  1  0
 24 25  1  0
 26 24  2  0
M  END
$$$$
