TEQ.pdb
     RDKit          3D

 26 25  0  0  1  0  0  0  0  0999 V2000
   27.1264  -10.5158  -15.3103 C   0  0  0  0  0  0  0  0  0  0  0  0
   27.4469  -11.0963  -16.6776 C   0  0  1  0  0  0  0  0  0  0  0  0
   28.6306  -11.7943  -16.5870 O   0  0  0  0  0  0  0  0  0  0  0  0
   26.2999  -11.9951  -17.1504 C   0  0  2  0  0  0  0  0  0  0  0  0
   26.7518  -12.5964  -18.4037 N   0  0  0  0  0  0  0  0  0  0  0  0
   25.1264  -11.1041  -17.3933 C   0  0  0  0  0  0  0  0  0  0  0  0
   25.0273  -10.4635  -18.4710 O   0  0  0  0  0  0  0  0  0  0  0  0
   24.0863  -10.9363  -16.4450 N   0  0  0  0  0  0  0  0  0  0  0  0
   22.9408  -10.1253  -16.7304 C   0  0  1  0  0  0  0  0  0  0  0  0
   21.7237  -10.9881  -16.7710 C   0  0  0  0  0  0  0  0  0  0  0  0
   21.5873  -11.8170  -18.0014 C   0  0  0  0  0  0  0  0  0  0  0  0
   20.2967  -12.5497  -17.9498 C   0  0  0  0  0  0  0  0  0  0  0  0
   20.2851  -13.7909  -17.7177 O   0  0  0  0  0  0  0  0  0  0  0  0
   22.7882   -8.9900  -15.7767 C   0  0  0  0  0  0  0  0  0  0  0  0
   22.9862   -9.2275  -14.5615 O   0  0  0  0  0  0  0  0  0  0  0  0
   19.0825  -11.8968  -18.1532 O   0  0  0  0  0  0  0  0  0  0  0  0
   22.3304   -2.6902  -17.3570 N   0  0  0  0  0  0  0  0  0  0  0  0
   22.1955   -2.7705  -15.9549 C   0  0  0  0  0  0  0  0  0  0  0  0
   22.0495   -1.6895  -15.3053 O   0  0  0  0  0  0  0  0  0  0  0  0
   22.2107   -4.0369  -15.2393 C   0  0  0  0  0  0  0  0  0  0  0  0
   22.3672   -5.2839  -15.9957 C   0  0  0  0  0  0  0  0  0  0  0  0
   22.3709   -6.5428  -15.2157 C   0  0  2  0  0  0  0  0  0  0  0  0
   22.4384   -7.6874  -16.1649 N   0  0  0  0  0  0  0  0  0  0  0  0
   21.1717   -6.7495  -14.4195 C   0  0  0  0  0  0  0  0  0  0  0  0
   21.0879   -6.3891  -13.0856 O   0  0  0  0  0  0  0  0  0  0  0  0
   20.1510   -7.2806  -14.9144 O   0  0  0  0  0  0  0  0  0  0  0  0
  2  1  1  1
  2  3  1  0
  4  6  1  0
  4  2  1  0
  4  5  1  6
  6  8  1  0
  7  6  2  0
  8  9  1  0
  9 14  1  0
  9 10  1  1
 11 10  1  0
 12 11  1  0
 13 12  2  0
 14 15  2  0
 14 23  1  0
 16 12  1  0
 17 18  1  0
 18 19  2  0
 20 18  1  0
 20 21  1  0
 22 21  1  6
 22 24  1  0
 23 22  1  0
 24 25  1  0
 26 24  2  0
M  END
$$$$
