TEQ.pdb
     RDKit          3D

 26 25  0  0  1  0  0  0  0  0999 V2000
   15.1881  -11.1872  -17.3801 C   0  0  0  0  0  0  0  0  0  0  0  0
   14.9745  -12.0559  -16.1517 C   0  0  1  0  0  0  0  0  0  0  0  0
   14.1941  -13.1323  -16.5107 O   0  0  0  0  0  0  0  0  0  0  0  0
   16.3241  -12.5057  -15.5833 C   0  0  2  0  0  0  0  0  0  0  0  0
   16.0128  -13.4011  -14.4708 N   0  0  0  0  0  0  0  0  0  0  0  0
   17.0132  -11.2775  -15.0866 C   0  0  0  0  0  0  0  0  0  0  0  0
   16.5269  -10.6180  -14.1325 O   0  0  0  0  0  0  0  0  0  0  0  0
   18.2232  -10.8003  -15.6501 N   0  0  0  0  0  0  0  0  0  0  0  0
   18.8422   -9.5980  -15.1784 C   0  0  1  0  0  0  0  0  0  0  0  0
   20.3165   -9.6855  -15.3933 C   0  0  0  0  0  0  0  0  0  0  0  0
   21.0750   -8.4580  -15.0224 C   0  0  0  0  0  0  0  0  0  0  0  0
   22.5252   -8.7075  -15.2215 C   0  0  0  0  0  0  0  0  0  0  0  0
   23.2149   -7.9033  -15.9088 O   0  0  0  0  0  0  0  0  0  0  0  0
   18.2605   -8.3719  -15.7949 C   0  0  0  0  0  0  0  0  0  0  0  0
   18.0199   -8.4038  -17.0251 O   0  0  0  0  0  0  0  0  0  0  0  0
   23.1541   -9.8189  -14.6636 O   0  0  0  0  0  0  0  0  0  0  0  0
   12.9989   -5.9151  -15.0796 N   0  0  0  0  0  0  0  0  0  0  0  0
   13.6958   -4.8268  -15.6456 C   0  0  0  0  0  0  0  0  0  0  0  0
   13.0285   -3.8030  -15.9895 O   0  0  0  0  0  0  0  0  0  0  0  0
   15.1376   -4.8369  -15.8388 C   0  0  0  0  0  0  0  0  0  0  0  0
   15.8997   -6.0355  -15.4720 C   0  0  0  0  0  0  0  0  0  0  0  0
   17.3627   -5.9923  -15.6980 C   0  0  2  0  0  0  0  0  0  0  0  0
   17.9731   -7.2000  -15.0778 N   0  0  0  0  0  0  0  0  0  0  0  0
   18.0224   -4.8488  -15.0880 C   0  0  0  0  0  0  0  0  0  0  0  0
   17.8694   -3.5568  -15.5608 O   0  0  0  0  0  0  0  0  0  0  0  0
   18.7774   -4.9902  -14.0987 O   0  0  0  0  0  0  0  0  0  0  0  0
  2  1  1  6
  2  3  1  0
  4  6  1  0
  4  2  1  0
  4  5  1  1
  6  8  1  0
  7  6  2  0
  8  9  1  0
  9 14  1  0
  9 10  1  6
 11 10  1  0
 12 11  1  0
 13 12  2  0
 14 15  2  0
 14 23  1  0
 16 12  1  0
 17 18  1  0
 18 19  2  0
 20 18  1  0
 20 21  1  0
 22 21  1  1
 22 24  1  0
 23 22  1  0
 24 25  1  0
 26 24  2  0
M  END
$$$$
