TEQ.pdb
     RDKit          3D

 26 25  0  0  1  0  0  0  0  0999 V2000
   17.8018  -14.3708  -17.9994 C   0  0  0  0  0  0  0  0  0  0  0  0
   16.6847  -13.9206  -17.0727 C   0  0  1  0  0  0  0  0  0  0  0  0
   15.8519  -14.9930  -16.8427 O   0  0  0  0  0  0  0  0  0  0  0  0
   17.2712  -13.3749  -15.7670 C   0  0  2  0  0  0  0  0  0  0  0  0
   16.3231  -13.7423  -14.7169 N   0  0  0  0  0  0  0  0  0  0  0  0
   17.3383  -11.8902  -15.9122 C   0  0  0  0  0  0  0  0  0  0  0  0
   18.0594  -11.3708  -16.8020 O   0  0  0  0  0  0  0  0  0  0  0  0
   16.6104  -11.0077  -15.0750 N   0  0  0  0  0  0  0  0  0  0  0  0
   16.8277   -9.5927  -15.1154 C   0  0  1  0  0  0  0  0  0  0  0  0
   15.6489   -8.8958  -14.5218 C   0  0  0  0  0  0  0  0  0  0  0  0
   14.3982   -8.9905  -15.3258 C   0  0  0  0  0  0  0  0  0  0  0  0
   13.2713   -8.4360  -14.5335 C   0  0  0  0  0  0  0  0  0  0  0  0
   12.3643   -9.2031  -14.1049 O   0  0  0  0  0  0  0  0  0  0  0  0
   18.1035   -9.1880  -14.4593 C   0  0  0  0  0  0  0  0  0  0  0  0
   18.3578   -9.6863  -13.3371 O   0  0  0  0  0  0  0  0  0  0  0  0
   13.1861   -7.0751  -14.2463 O   0  0  0  0  0  0  0  0  0  0  0  0
   23.3100  -10.9951  -15.8711 N   0  0  0  0  0  0  0  0  0  0  0  0
   23.6760   -9.9084  -15.0491 C   0  0  0  0  0  0  0  0  0  0  0  0
   24.8874   -9.8193  -14.6796 O   0  0  0  0  0  0  0  0  0  0  0  0
   22.7234   -8.8952  -14.6224 C   0  0  0  0  0  0  0  0  0  0  0  0
   21.3146   -9.0306  -15.0084 C   0  0  0  0  0  0  0  0  0  0  0  0
   20.3711   -8.0323  -14.4549 C   0  0  2  0  0  0  0  0  0  0  0  0
   19.0209   -8.2897  -15.0262 N   0  0  0  0  0  0  0  0  0  0  0  0
   20.6975   -6.6567  -14.7955 C   0  0  0  0  0  0  0  0  0  0  0  0
   21.6542   -5.9240  -14.1142 O   0  0  0  0  0  0  0  0  0  0  0  0
   20.1086   -6.0651  -15.7294 O   0  0  0  0  0  0  0  0  0  0  0  0
  2  1  1  6
  2  3  1  0
  4  6  1  0
  4  2  1  0
  4  5  1  1
  6  8  1  0
  7  6  2  0
  8  9  1  0
  9 14  1  0
  9 10  1  1
 11 10  1  0
 12 11  1  0
 13 12  2  0
 14 15  2  0
 14 23  1  0
 16 12  1  0
 17 18  1  0
 18 19  2  0
 20 18  1  0
 20 21  1  0
 22 21  1  6
 22 24  1  0
 23 22  1  0
 24 25  1  0
 26 24  2  0
M  END
$$$$
