TEQ.pdb
     RDKit          3D

 26 25  0  0  1  0  0  0  0  0999 V2000
   22.9359  -15.5497  -18.4990 C   0  0  0  0  0  0  0  0  0  0  0  0
   23.7052  -16.1087  -19.6843 C   0  0  1  0  0  0  0  0  0  0  0  0
   24.0762  -15.0595  -20.4956 O   0  0  0  0  0  0  0  0  0  0  0  0
   24.9233  -16.8991  -19.1964 C   0  0  2  0  0  0  0  0  0  0  0  0
   25.6314  -17.3290  -20.4007 N   0  0  0  0  0  0  0  0  0  0  0  0
   24.3989  -18.0816  -18.4502 C   0  0  0  0  0  0  0  0  0  0  0  0
   23.5906  -18.8726  -19.0003 O   0  0  0  0  0  0  0  0  0  0  0  0
   24.7748  -18.3691  -17.1140 N   0  0  0  0  0  0  0  0  0  0  0  0
   24.3588  -19.5765  -16.4658 C   0  0  1  0  0  0  0  0  0  0  0  0
   25.5409  -20.2250  -15.8260 C   0  0  0  0  0  0  0  0  0  0  0  0
   26.0626  -21.4204  -16.5462 C   0  0  0  0  0  0  0  0  0  0  0  0
   27.4289  -21.7249  -16.0506 C   0  0  0  0  0  0  0  0  0  0  0  0
   27.9789  -20.9616  -15.2083 O   0  0  0  0  0  0  0  0  0  0  0  0
   23.2503  -19.3549  -15.4942 C   0  0  0  0  0  0  0  0  0  0  0  0
   23.3818  -18.4154  -14.6743 O   0  0  0  0  0  0  0  0  0  0  0  0
   28.1298  -22.8443  -16.4953 O   0  0  0  0  0  0  0  0  0  0  0  0
   17.1691  -21.5527  -15.8855 N   0  0  0  0  0  0  0  0  0  0  0  0
   17.2860  -20.8976  -14.6415 C   0  0  0  0  0  0  0  0  0  0  0  0
   16.2590  -20.8396  -13.8973 O   0  0  0  0  0  0  0  0  0  0  0  0
   18.5318  -20.3002  -14.1864 C   0  0  0  0  0  0  0  0  0  0  0  0
   19.7247  -20.4010  -15.0342 C   0  0  0  0  0  0  0  0  0  0  0  0
   21.0014  -19.9297  -14.4501 C   0  0  2  0  0  0  0  0  0  0  0  0
   22.0838  -20.1343  -15.4513 N   0  0  0  0  0  0  0  0  0  0  0  0
   21.4115  -20.6562  -13.2590 C   0  0  0  0  0  0  0  0  0  0  0  0
   21.0636  -20.2544  -11.9808 O   0  0  0  0  0  0  0  0  0  0  0  0
   22.1170  -21.6877  -13.3421 O   0  0  0  0  0  0  0  0  0  0  0  0
  2  1  1  1
  2  3  1  0
  4  6  1  0
  4  2  1  0
  4  5  1  6
  6  8  1  0
  7  6  2  0
  8  9  1  0
  9 14  1  0
  9 10  1  1
 11 10  1  0
 12 11  1  0
 13 12  2  0
 14 15  2  0
 14 23  1  0
 16 12  1  0
 17 18  1  0
 18 19  2  0
 20 18  1  0
 20 21  1  0
 22 21  1  6
 22 24  1  0
 23 22  1  0
 24 25  1  0
 26 24  2  0
M  END
$$$$
