TEQ.pdb
     RDKit          3D

 26 25  0  0  1  0  0  0  0  0999 V2000
   26.9786  -11.2316  -15.6728 C   0  0  0  0  0  0  0  0  0  0  0  0
   26.7673  -12.5311  -16.4317 C   0  0  1  0  0  0  0  0  0  0  0  0
   27.8034  -13.3857  -16.1274 O   0  0  0  0  0  0  0  0  0  0  0  0
   25.4106  -13.1407  -16.0651 C   0  0  2  0  0  0  0  0  0  0  0  0
   25.3264  -14.4025  -16.7980 N   0  0  0  0  0  0  0  0  0  0  0  0
   24.3661  -12.1880  -16.5464 C   0  0  0  0  0  0  0  0  0  0  0  0
   23.7891  -12.3807  -17.6471 O   0  0  0  0  0  0  0  0  0  0  0  0
   23.9783  -11.0429  -15.8064 N   0  0  0  0  0  0  0  0  0  0  0  0
   22.8579  -10.2435  -16.2024 C   0  0  1  0  0  0  0  0  0  0  0  0
   21.6525  -11.1140  -16.3318 C   0  0  0  0  0  0  0  0  0  0  0  0
   20.4077  -10.4002  -16.7327 C   0  0  0  0  0  0  0  0  0  0  0  0
   19.2865  -11.3728  -16.7788 C   0  0  0  0  0  0  0  0  0  0  0  0
   19.1548  -12.1365  -17.7759 O   0  0  0  0  0  0  0  0  0  0  0  0
   22.6193   -9.0933  -15.2848 C   0  0  0  0  0  0  0  0  0  0  0  0
   22.5101   -9.3451  -14.0613 O   0  0  0  0  0  0  0  0  0  0  0  0
   18.3639  -11.4671  -15.7387 O   0  0  0  0  0  0  0  0  0  0  0  0
   22.6771   -2.7631  -16.9024 N   0  0  0  0  0  0  0  0  0  0  0  0
   22.3269   -2.8402  -15.5379 C   0  0  0  0  0  0  0  0  0  0  0  0
   22.0978   -1.7566  -14.9171 O   0  0  0  0  0  0  0  0  0  0  0  0
   22.2140   -4.1059  -14.8299 C   0  0  0  0  0  0  0  0  0  0  0  0
   22.4336   -5.3574  -15.5631 C   0  0  0  0  0  0  0  0  0  0  0  0
   22.3428   -6.6133  -14.7836 C   0  0  2  0  0  0  0  0  0  0  0  0
   22.5118   -7.7618  -15.7154 N   0  0  0  0  0  0  0  0  0  0  0  0
   21.0600   -6.8117  -14.1278 C   0  0  0  0  0  0  0  0  0  0  0  0
   20.8133   -6.4045  -12.8280 O   0  0  0  0  0  0  0  0  0  0  0  0
   20.1125   -7.3782  -14.7196 O   0  0  0  0  0  0  0  0  0  0  0  0
  2  1  1  1
  2  3  1  0
  4  6  1  0
  4  2  1  0
  4  5  1  6
  6  8  1  0
  7  6  2  0
  8  9  1  0
  9 14  1  0
  9 10  1  1
 11 10  1  0
 12 11  1  0
 13 12  2  0
 14 15  2  0
 14 23  1  0
 16 12  1  0
 17 18  1  0
 18 19  2  0
 20 18  1  0
 20 21  1  0
 22 21  1  6
 22 24  1  0
 23 22  1  0
 24 25  1  0
 26 24  2  0
M  END
$$$$
