TEQ.pdb
     RDKit          3D

 26 25  0  0  1  0  0  0  0  0999 V2000
   17.9502  -12.3632  -14.5676 C   0  0  0  0  0  0  0  0  0  0  0  0
   18.9397  -12.7875  -15.6400 C   0  0  1  0  0  0  0  0  0  0  0  0
   18.5549  -14.0179  -16.1243 O   0  0  0  0  0  0  0  0  0  0  0  0
   18.9920  -11.7371  -16.7539 C   0  0  2  0  0  0  0  0  0  0  0  0
   19.5676  -12.4123  -17.9155 N   0  0  0  0  0  0  0  0  0  0  0  0
   19.9003  -10.6509  -16.2794 C   0  0  0  0  0  0  0  0  0  0  0  0
   19.6163   -9.9908  -15.2473 O   0  0  0  0  0  0  0  0  0  0  0  0
   21.1024  -10.3135  -16.9506 N   0  0  0  0  0  0  0  0  0  0  0  0
   21.9064   -9.2061  -16.5285 C   0  0  1  0  0  0  0  0  0  0  0  0
   23.2174   -9.2490  -17.2406 C   0  0  0  0  0  0  0  0  0  0  0  0
   24.2015   -8.2217  -16.7982 C   0  0  0  0  0  0  0  0  0  0  0  0
   25.4919   -8.4574  -17.4942 C   0  0  0  0  0  0  0  0  0  0  0  0
   26.3963   -9.1370  -16.9328 O   0  0  0  0  0  0  0  0  0  0  0  0
   21.2183   -7.8957  -16.7052 C   0  0  0  0  0  0  0  0  0  0  0  0
   20.5343   -7.7394  -17.7445 O   0  0  0  0  0  0  0  0  0  0  0  0
   25.7355   -7.9428  -18.7661 O   0  0  0  0  0  0  0  0  0  0  0  0
   16.6282   -5.8355  -17.4114 N   0  0  0  0  0  0  0  0  0  0  0  0
   16.8488   -4.9222  -16.3589 C   0  0  0  0  0  0  0  0  0  0  0  0
   15.9483   -4.0607  -16.1160 O   0  0  0  0  0  0  0  0  0  0  0  0
   18.0566   -4.9401  -15.5483 C   0  0  0  0  0  0  0  0  0  0  0  0
   19.0325   -6.0179  -15.7431 C   0  0  0  0  0  0  0  0  0  0  0  0
   20.4536   -5.6191  -15.8625 C   0  0  2  0  0  0  0  0  0  0  0  0
   21.2970   -6.8429  -15.7804 N   0  0  0  0  0  0  0  0  0  0  0  0
   20.9134   -4.7404  -14.7989 C   0  0  0  0  0  0  0  0  0  0  0  0
   21.5702   -5.2080  -13.6736 O   0  0  0  0  0  0  0  0  0  0  0  0
   20.7216   -3.5039  -14.8539 O   0  0  0  0  0  0  0  0  0  0  0  0
  2  1  1  1
  2  3  1  0
  4  6  1  0
  4  2  1  0
  4  5  1  6
  6  8  1  0
  7  6  2  0
  8  9  1  0
  9 14  1  0
  9 10  1  6
 11 10  1  0
 12 11  1  0
 13 12  2  0
 14 15  2  0
 14 23  1  0
 16 12  1  0
 17 18  1  0
 18 19  2  0
 20 18  1  0
 20 21  1  0
 22 21  1  1
 22 24  1  0
 23 22  1  0
 24 25  1  0
 26 24  2  0
M  END
$$$$
