HKS.pdb
     RDKit          3D

 26 26  0  0  1  0  0  0  0  0999 V2000
    8.6368  -18.7490   15.5374 N   0  0  0  0  0  0  0  0  0  0  0  0
    9.8897  -19.1556   16.1389 C   0  0  1  0  0  0  0  0  0  0  0  0
   10.9576  -18.1088   15.9164 C   0  0  0  0  0  0  0  0  0  0  0  0
   11.3947  -18.1810   14.4976 C   0  0  0  0  0  0  0  0  0  0  0  0
   11.2703  -19.2085   13.6014 C   0  0  0  0  0  0  0  0  0  0  0  0
   11.8000  -18.8712   12.4059 N   0  0  0  0  0  0  0  0  0  0  0  0
   12.2616  -17.6129   12.5611 C   0  0  0  0  0  0  0  0  0  0  0  0
   12.0240  -17.1808   13.8214 N   0  0  0  0  0  0  0  0  0  0  0  0
    9.6678  -19.4647   17.5479 C   0  0  0  0  0  0  0  0  0  0  0  0
    9.1019  -18.6283   18.2765 O   0  0  0  0  0  0  0  0  0  0  0  0
   10.0500  -20.6725   18.1900 N   0  0  0  0  0  0  0  0  0  0  0  0
    9.7304  -20.9275   19.5321 C   0  0  1  0  0  0  0  0  0  0  0  0
    9.5493  -22.3221   19.9745 C   0  0  0  0  0  0  0  0  0  0  0  0
    9.1877  -22.4623   21.4234 C   0  0  0  0  0  0  0  0  0  0  0  0
    9.0188  -23.8364   21.9524 C   0  0  0  0  0  0  0  0  0  0  0  0
    8.5957  -23.7720   23.4124 C   0  0  0  0  0  0  0  0  0  0  0  0
    8.4537  -25.1223   23.9468 N   0  0  0  0  0  0  0  0  0  0  0  0
   10.7139  -20.1981   20.3781 C   0  0  0  0  0  0  0  0  0  0  0  0
   11.9228  -20.0714   20.0636 O   0  0  0  0  0  0  0  0  0  0  0  0
    9.4994  -17.4568   23.2049 O   0  0  0  0  0  0  0  0  0  0  0  0
   10.7316  -17.5088   22.5906 C   0  0  0  0  0  0  0  0  0  0  0  0
   11.2468  -18.9238   22.4370 C   0  0  2  0  0  0  0  0  0  0  0  0
   10.2790  -19.6174   21.5920 N   0  0  0  0  0  0  0  0  0  0  0  0
   11.3925  -19.6249   23.7077 C   0  0  0  0  0  0  0  0  0  0  0  0
   10.6232  -20.5589   24.0117 O   0  0  0  0  0  0  0  0  0  0  0  0
   12.3880  -19.2577   24.5873 O   0  0  0  0  0  0  0  0  0  0  0  0
  2  1  1  1
  2  9  1  0
  2  3  1  0
  3  4  1  0
  4  5  2  0
  5  6  1  0
  7  6  1  0
  8  4  1  0
  8  7  2  0
  9 10  2  0
 11 12  1  0
 11  9  1  0
 12 13  1  6
 13 14  1  0
 14 15  1  0
 15 16  1  0
 16 17  1  0
 18 23  1  0
 18 12  1  0
 19 18  2  0
 20 21  1  0
 22 21  1  1
 22 23  1  0
 24 22  1  0
 24 26  1  0
 25 24  2  0
M  END
$$$$
