HKS.pdb
     RDKit          3D

 26 26  0  0  1  0  0  0  0  0999 V2000
    5.3276  -18.6349   12.4355 N   0  0  0  0  0  0  0  0  0  0  0  0
    6.4805  -19.3095   12.9946 C   0  0  1  0  0  0  0  0  0  0  0  0
    7.7380  -18.5009   12.7698 C   0  0  0  0  0  0  0  0  0  0  0  0
    8.0594  -18.5300   11.3189 C   0  0  0  0  0  0  0  0  0  0  0  0
    8.3350  -17.4925   10.4691 C   0  0  0  0  0  0  0  0  0  0  0  0
    8.5771  -17.9449    9.2200 N   0  0  0  0  0  0  0  0  0  0  0  0
    8.4500  -19.2860    9.2940 C   0  0  0  0  0  0  0  0  0  0  0  0
    8.1368  -19.6560   10.5576 N   0  0  0  0  0  0  0  0  0  0  0  0
    6.2277  -19.6062   14.4011 C   0  0  0  0  0  0  0  0  0  0  0  0
    5.7767  -18.7141   15.1436 O   0  0  0  0  0  0  0  0  0  0  0  0
    6.4556  -20.8613   15.0256 N   0  0  0  0  0  0  0  0  0  0  0  0
    6.0705  -21.1056   16.3525 C   0  0  1  0  0  0  0  0  0  0  0  0
    5.1948  -22.2547   16.6458 C   0  0  0  0  0  0  0  0  0  0  0  0
    4.8818  -22.4293   18.1022 C   0  0  0  0  0  0  0  0  0  0  0  0
    4.1021  -23.6282   18.4914 C   0  0  0  0  0  0  0  0  0  0  0  0
    3.8404  -23.6016   19.9899 C   0  0  0  0  0  0  0  0  0  0  0  0
    3.2001  -24.8459   20.4029 N   0  0  0  0  0  0  0  0  0  0  0  0
    7.3030  -21.1175   17.1866 C   0  0  0  0  0  0  0  0  0  0  0  0
    8.3427  -21.7404   16.8588 O   0  0  0  0  0  0  0  0  0  0  0  0
    7.4095  -18.9267   20.7605 O   0  0  0  0  0  0  0  0  0  0  0  0
    8.5336  -19.1070   19.9845 C   0  0  0  0  0  0  0  0  0  0  0  0
    8.5179  -20.4206   19.2325 C   0  0  2  0  0  0  0  0  0  0  0  0
    7.3155  -20.3984   18.4044 N   0  0  0  0  0  0  0  0  0  0  0  0
    8.4984  -21.5861   20.1092 C   0  0  0  0  0  0  0  0  0  0  0  0
    7.4868  -22.3131   20.1799 O   0  0  0  0  0  0  0  0  0  0  0  0
    9.6050  -21.8944   20.8707 O   0  0  0  0  0  0  0  0  0  0  0  0
  2  1  1  1
  2  9  1  0
  2  3  1  0
  3  4  1  0
  4  5  2  0
  5  6  1  0
  7  6  1  0
  8  4  1  0
  8  7  2  0
  9 10  2  0
 11 12  1  0
 11  9  1  0
 12 13  1  6
 13 14  1  0
 14 15  1  0
 15 16  1  0
 16 17  1  0
 18 23  1  0
 18 12  1  0
 19 18  2  0
 20 21  1  0
 22 21  1  1
 22 23  1  0
 24 22  1  0
 24 26  1  0
 25 24  2  0
M  END
$$$$
