HKS.pdb
     RDKit          3D

 26 26  0  0  1  0  0  0  0  0999 V2000
   13.9569  -19.2810   15.9921 N   0  0  0  0  0  0  0  0  0  0  0  0
   14.7228  -20.1128   16.8968 C   0  0  1  0  0  0  0  0  0  0  0  0
   16.1968  -20.0508   16.5665 C   0  0  0  0  0  0  0  0  0  0  0  0
   16.3543  -20.2175   15.0979 C   0  0  0  0  0  0  0  0  0  0  0  0
   16.8936  -19.3580   14.1789 C   0  0  0  0  0  0  0  0  0  0  0  0
   16.8487  -19.8896   12.9384 N   0  0  0  0  0  0  0  0  0  0  0  0
   16.2718  -21.1001   13.0883 C   0  0  0  0  0  0  0  0  0  0  0  0
   15.9667  -21.3136   14.3894 N   0  0  0  0  0  0  0  0  0  0  0  0
   14.4219  -19.7293   18.2725 C   0  0  0  0  0  0  0  0  0  0  0  0
   14.3391  -18.5223   18.5675 O   0  0  0  0  0  0  0  0  0  0  0  0
   14.2071  -20.6348   19.3453 N   0  0  0  0  0  0  0  0  0  0  0  0
   13.9293  -20.1858   20.6452 C   0  0  1  0  0  0  0  0  0  0  0  0
   13.0023  -20.9609   21.4897 C   0  0  0  0  0  0  0  0  0  0  0  0
   12.7800  -20.3743   22.8521 C   0  0  0  0  0  0  0  0  0  0  0  0
   11.8873  -21.1154   23.7744 C   0  0  0  0  0  0  0  0  0  0  0  0
   11.8011  -20.3780   25.1024 C   0  0  0  0  0  0  0  0  0  0  0  0
   11.0333  -21.1686   26.0587 N   0  0  0  0  0  0  0  0  0  0  0  0
   15.2294  -19.9393   21.3264 C   0  0  0  0  0  0  0  0  0  0  0  0
   16.1876  -20.7492   21.2812 O   0  0  0  0  0  0  0  0  0  0  0  0
   16.1199  -16.1486   23.0302 O   0  0  0  0  0  0  0  0  0  0  0  0
   16.9803  -16.9884   22.3572 C   0  0  0  0  0  0  0  0  0  0  0  0
   16.7108  -18.4501   22.6437 C   0  0  2  0  0  0  0  0  0  0  0  0
   15.4049  -18.7428   22.0597 N   0  0  0  0  0  0  0  0  0  0  0  0
   16.7027  -18.7662   24.0675 C   0  0  0  0  0  0  0  0  0  0  0  0
   15.6291  -18.9776   24.6670 O   0  0  0  0  0  0  0  0  0  0  0  0
   17.8894  -18.8339   24.7652 O   0  0  0  0  0  0  0  0  0  0  0  0
  2  1  1  6
  2  9  1  0
  2  3  1  0
  3  4  1  0
  4  5  2  0
  5  6  1  0
  7  6  1  0
  8  4  1  0
  8  7  2  0
  9 10  2  0
 11 12  1  0
 11  9  1  0
 12 13  1  1
 13 14  1  0
 14 15  1  0
 15 16  1  0
 16 17  1  0
 18 23  1  0
 18 12  1  0
 19 18  2  0
 20 21  1  0
 22 21  1  1
 22 23  1  0
 24 22  1  0
 24 26  1  0
 25 24  2  0
M  END
$$$$
