HKS.pdb
     RDKit          3D

 26 26  0  0  1  0  0  0  0  0999 V2000
    5.6519  -15.0407   21.6419 N   0  0  0  0  0  0  0  0  0  0  0  0
    6.9584  -15.6502   21.7773 C   0  0  1  0  0  0  0  0  0  0  0  0
    8.0400  -14.5956   21.8381 C   0  0  0  0  0  0  0  0  0  0  0  0
    8.0577  -13.8688   20.5416 C   0  0  0  0  0  0  0  0  0  0  0  0
    7.2490  -14.0236   19.4478 C   0  0  0  0  0  0  0  0  0  0  0  0
    7.5956  -13.1621   18.4673 N   0  0  0  0  0  0  0  0  0  0  0  0
    8.6372  -12.4598   18.9595 C   0  0  0  0  0  0  0  0  0  0  0  0
    8.9292  -12.8755   20.2139 N   0  0  0  0  0  0  0  0  0  0  0  0
    6.9548  -16.5418   22.9328 C   0  0  0  0  0  0  0  0  0  0  0  0
    6.4772  -16.1438   24.0118 O   0  0  0  0  0  0  0  0  0  0  0  0
    7.4628  -17.8681   22.9437 N   0  0  0  0  0  0  0  0  0  0  0  0
    7.3977  -18.6734   24.0907 C   0  0  1  0  0  0  0  0  0  0  0  0
    7.2783  -20.1347   23.9360 C   0  0  0  0  0  0  0  0  0  0  0  0
    5.9118  -20.5969   23.5254 C   0  0  0  0  0  0  0  0  0  0  0  0
    5.7435  -22.0380   23.2226 C   0  0  0  0  0  0  0  0  0  0  0  0
    4.3112  -22.3026   22.7834 C   0  0  0  0  0  0  0  0  0  0  0  0
    4.1271  -23.7272   22.5271 N   0  0  0  0  0  0  0  0  0  0  0  0
    8.5361  -18.2979   24.9727 C   0  0  0  0  0  0  0  0  0  0  0  0
    9.3790  -17.4206   24.6623 O   0  0  0  0  0  0  0  0  0  0  0  0
    8.5771  -16.9655   28.4888 O   0  0  0  0  0  0  0  0  0  0  0  0
    9.4919  -17.0971   27.4670 C   0  0  0  0  0  0  0  0  0  0  0  0
    9.7650  -18.5430   27.1121 C   0  0  2  0  0  0  0  0  0  0  0  0
    8.6850  -18.9511   26.2182 N   0  0  0  0  0  0  0  0  0  0  0  0
    9.8099  -19.4230   28.2744 C   0  0  0  0  0  0  0  0  0  0  0  0
    8.9234  -20.2815   28.4580 O   0  0  0  0  0  0  0  0  0  0  0  0
   10.8392  -19.3112   29.1841 O   0  0  0  0  0  0  0  0  0  0  0  0
  2  1  1  1
  2  9  1  0
  2  3  1  0
  3  4  1  0
  4  5  2  0
  5  6  1  0
  7  6  1  0
  8  4  1  0
  8  7  2  0
  9 10  2  0
 11 12  1  0
 11  9  1  0
 12 13  1  6
 13 14  1  0
 14 15  1  0
 15 16  1  0
 16 17  1  0
 18 23  1  0
 18 12  1  0
 19 18  2  0
 20 21  1  0
 22 21  1  1
 22 23  1  0
 24 22  1  0
 24 26  1  0
 25 24  2  0
M  END
$$$$
