HKS.pdb
     RDKit          3D

 26 26  0  0  1  0  0  0  0  0999 V2000
    9.0419  -15.4940   20.3769 N   0  0  0  0  0  0  0  0  0  0  0  0
    7.9651  -14.6607   20.8696 C   0  0  1  0  0  0  0  0  0  0  0  0
    6.8237  -14.6158   19.8792 C   0  0  0  0  0  0  0  0  0  0  0  0
    7.3657  -14.1976   18.5599 C   0  0  0  0  0  0  0  0  0  0  0  0
    8.2629  -13.2068   18.2637 C   0  0  0  0  0  0  0  0  0  0  0  0
    8.4953  -13.1495   16.9347 N   0  0  0  0  0  0  0  0  0  0  0  0
    7.7299  -14.1208   16.3952 C   0  0  0  0  0  0  0  0  0  0  0  0
    7.0401  -14.7644   17.3656 N   0  0  0  0  0  0  0  0  0  0  0  0
    7.5640  -15.1274   22.1931 C   0  0  0  0  0  0  0  0  0  0  0  0
    6.5833  -14.6051   22.7553 O   0  0  0  0  0  0  0  0  0  0  0  0
    8.2095  -16.1578   22.9270 N   0  0  0  0  0  0  0  0  0  0  0  0
    7.8147  -16.4930   24.2309 C   0  0  1  0  0  0  0  0  0  0  0  0
    8.0817  -17.8526   24.7347 C   0  0  0  0  0  0  0  0  0  0  0  0
    7.6215  -18.0845   26.1432 C   0  0  0  0  0  0  0  0  0  0  0  0
    7.9690  -19.3831   26.7673 C   0  0  0  0  0  0  0  0  0  0  0  0
    7.3482  -19.4646   28.1539 C   0  0  0  0  0  0  0  0  0  0  0  0
    7.7340  -20.7166   28.7963 N   0  0  0  0  0  0  0  0  0  0  0  0
    8.3431  -15.4459   25.1471 C   0  0  0  0  0  0  0  0  0  0  0  0
    9.5512  -15.1047   25.1687 O   0  0  0  0  0  0  0  0  0  0  0  0
    6.2481  -12.3427   26.1325 O   0  0  0  0  0  0  0  0  0  0  0  0
    6.8218  -12.8683   27.2696 C   0  0  0  0  0  0  0  0  0  0  0  0
    7.9760  -13.7985   26.9633 C   0  0  2  0  0  0  0  0  0  0  0  0
    7.4542  -14.7994   26.0371 N   0  0  0  0  0  0  0  0  0  0  0  0
    8.5201  -14.4512   28.1487 C   0  0  0  0  0  0  0  0  0  0  0  0
    8.5250  -15.6952   28.2452 O   0  0  0  0  0  0  0  0  0  0  0  0
    9.0363  -13.6929   29.1774 O   0  0  0  0  0  0  0  0  0  0  0  0
  2  1  1  6
  2  9  1  0
  2  3  1  0
  3  4  1  0
  4  5  2  0
  5  6  1  0
  7  6  1  0
  8  4  1  0
  8  7  2  0
  9 10  2  0
 11 12  1  0
 11  9  1  0
 12 13  1  1
 13 14  1  0
 14 15  1  0
 15 16  1  0
 16 17  1  0
 18 23  1  0
 18 12  1  0
 19 18  2  0
 20 21  1  0
 22 21  1  1
 22 23  1  0
 24 22  1  0
 24 26  1  0
 25 24  2  0
M  END
$$$$
