LIV.pdb
     RDKit          3D

 24 23  0  0  1  0  0  0  0  0999 V2000
   20.9805  -19.7316  -12.1524 C   0  0  0  0  0  0  0  0  0  0  0  0
   22.2444  -20.3103  -12.7063 C   0  0  1  0  0  0  0  0  0  0  0  0
   22.9061  -19.2569  -13.5669 C   0  0  0  0  0  0  0  0  0  0  0  0
   23.1707  -20.8034  -11.6142 C   0  0  0  0  0  0  0  0  0  0  0  0
   24.4995  -21.2437  -12.1736 C   0  0  2  0  0  0  0  0  0  0  0  0
   24.2743  -22.4506  -12.9458 N   0  0  0  0  0  0  0  0  0  0  0  0
   25.5137  -21.4822  -11.1501 C   0  0  0  0  0  0  0  0  0  0  0  0
   25.3636  -22.4432  -10.3193 O   0  0  0  0  0  0  0  0  0  0  0  0
   30.7446  -22.5618   -9.6658 C   0  0  0  0  0  0  0  0  0  0  0  0
   30.0665  -21.2448   -9.4455 C   0  0  0  0  0  0  0  0  0  0  0  0
   29.0697  -20.9253  -10.5443 C   0  0  2  0  0  0  0  0  0  0  0  0
   29.4021  -19.5737  -11.0822 C   0  0  0  0  0  0  0  0  0  0  0  0
   27.6976  -20.9894   -9.9720 C   0  0  2  0  0  0  0  0  0  0  0  0
   26.6964  -20.7209  -10.9813 N   0  0  0  0  0  0  0  0  0  0  0  0
   27.5121  -20.1514   -8.7657 C   0  0  0  0  0  0  0  0  0  0  0  0
   27.0213  -19.0018   -8.9088 O   0  0  0  0  0  0  0  0  0  0  0  0
   26.4451  -21.5021   -5.1047 C   0  0  0  0  0  0  0  0  0  0  0  0
   27.6084  -20.5289   -5.0132 C   0  0  1  0  0  0  0  0  0  0  0  0
   28.8608  -21.3428   -4.7722 C   0  0  0  0  0  0  0  0  0  0  0  0
   27.7596  -19.7331   -6.2894 C   0  0  2  0  0  0  0  0  0  0  0  0
   27.8581  -20.5733   -7.4519 N   0  0  0  0  0  0  0  0  0  0  0  0
   28.8651  -18.7678   -6.1794 C   0  0  0  0  0  0  0  0  0  0  0  0
   29.9052  -18.9381   -6.8403 O   0  0  0  0  0  0  0  0  0  0  0  0
   28.7497  -17.6803   -5.3490 O   0  0  0  0  0  0  0  0  0  0  0  0
  2  3  1  1
  2  1  1  0
  4  2  1  0
  5  4  1  0
  5  6  1  1
  7  5  1  0
  7 14  1  0
  8  7  2  0
 10  9  1  0
 11 10  1  0
 11 12  1  1
 13 14  1  6
 13 11  1  0
 15 13  1  0
 16 15  2  0
 18 17  1  6
 18 20  1  0
 19 18  1  0
 20 22  1  0
 20 21  1  6
 21 15  1  0
 22 24  1  0
 23 22  2  0
M  END
$$$$
