LIV.pdb
     RDKit          3D

 24 23  0  0  1  0  0  0  0  0999 V2000
   17.9317  -16.4114  -16.9984 C   0  0  0  0  0  0  0  0  0  0  0  0
   18.6669  -15.2772  -17.6406 C   0  0  1  0  0  0  0  0  0  0  0  0
   17.8620  -14.8106  -18.8333 C   0  0  0  0  0  0  0  0  0  0  0  0
   18.9313  -14.1472  -16.6673 C   0  0  0  0  0  0  0  0  0  0  0  0
   19.6245  -12.9897  -17.3396 C   0  0  2  0  0  0  0  0  0  0  0  0
   20.8856  -13.4765  -17.8654 N   0  0  0  0  0  0  0  0  0  0  0  0
   19.8539  -11.8517  -16.4532 C   0  0  0  0  0  0  0  0  0  0  0  0
   18.9233  -11.4618  -15.6670 O   0  0  0  0  0  0  0  0  0  0  0  0
   24.5616  -11.3533  -14.5209 C   0  0  0  0  0  0  0  0  0  0  0  0
   23.0953  -11.0829  -14.3808 C   0  0  0  0  0  0  0  0  0  0  0  0
   22.6749   -9.8222  -15.1137 C   0  0  2  0  0  0  0  0  0  0  0  0
   22.9010   -8.6659  -14.1982 C   0  0  0  0  0  0  0  0  0  0  0  0
   21.2487   -9.9612  -15.5150 C   0  0  2  0  0  0  0  0  0  0  0  0
   21.0568  -11.1074  -16.3767 N   0  0  0  0  0  0  0  0  0  0  0  0
   20.6653   -8.7278  -16.0894 C   0  0  0  0  0  0  0  0  0  0  0  0
   21.1880   -8.2499  -17.1293 O   0  0  0  0  0  0  0  0  0  0  0  0
   17.3611   -7.9729  -17.5078 C   0  0  0  0  0  0  0  0  0  0  0  0
   17.5670   -6.9183  -16.4335 C   0  0  1  0  0  0  0  0  0  0  0  0
   16.7463   -7.3312  -15.2314 C   0  0  0  0  0  0  0  0  0  0  0  0
   19.0228   -6.8125  -16.0405 C   0  0  2  0  0  0  0  0  0  0  0  0
   19.5452   -8.0513  -15.5310 N   0  0  0  0  0  0  0  0  0  0  0  0
   19.2407   -5.6763  -15.1306 C   0  0  0  0  0  0  0  0  0  0  0  0
   19.5095   -5.8830  -13.9337 O   0  0  0  0  0  0  0  0  0  0  0  0
   19.1478   -4.3896  -15.6012 O   0  0  0  0  0  0  0  0  0  0  0  0
  2  3  1  6
  2  1  1  0
  4  2  1  0
  5  4  1  0
  5  6  1  1
  7  5  1  0
  7 14  1  0
  8  7  2  0
 10  9  1  0
 11 10  1  0
 11 12  1  1
 13 14  1  6
 13 11  1  0
 15 13  1  0
 16 15  2  0
 18 17  1  6
 18 20  1  0
 19 18  1  0
 20 22  1  0
 20 21  1  1
 21 15  1  0
 22 24  1  0
 23 22  2  0
M  END
$$$$
