LIV.pdb
     RDKit          3D

 24 23  0  0  1  0  0  0  0  0999 V2000
   19.4254   -9.1360  -14.0460 C   0  0  0  0  0  0  0  0  0  0  0  0
   18.3287   -9.6437  -13.1634 C   0  0  1  0  0  0  0  0  0  0  0  0
   18.9586  -10.4384  -12.0410 C   0  0  0  0  0  0  0  0  0  0  0  0
   17.4586   -8.5222  -12.6352 C   0  0  0  0  0  0  0  0  0  0  0  0
   16.3245   -9.0517  -11.7950 C   0  0  2  0  0  0  0  0  0  0  0  0
   15.5187   -9.9154  -12.6366 N   0  0  0  0  0  0  0  0  0  0  0  0
   15.4942   -8.0034  -11.2075 C   0  0  0  0  0  0  0  0  0  0  0  0
   14.7646   -7.2733  -11.9631 O   0  0  0  0  0  0  0  0  0  0  0  0
   13.3421   -9.5583   -8.3198 C   0  0  0  0  0  0  0  0  0  0  0  0
   12.8378   -8.1483   -8.3467 C   0  0  0  0  0  0  0  0  0  0  0  0
   13.9242   -7.1469   -8.0002 C   0  0  2  0  0  0  0  0  0  0  0  0
   13.2903   -6.0331   -7.2359 C   0  0  0  0  0  0  0  0  0  0  0  0
   14.5599   -6.6823   -9.2629 C   0  0  2  0  0  0  0  0  0  0  0  0
   15.4155   -7.7046   -9.8250 N   0  0  0  0  0  0  0  0  0  0  0  0
   15.2533   -5.3801   -9.1404 C   0  0  0  0  0  0  0  0  0  0  0  0
   16.3446   -5.3428   -8.5155 O   0  0  0  0  0  0  0  0  0  0  0  0
   16.0616   -2.8631  -12.0001 C   0  0  0  0  0  0  0  0  0  0  0  0
   15.3849   -2.1101  -10.8670 C   0  0  1  0  0  0  0  0  0  0  0  0
   13.9455   -1.8808  -11.2727 C   0  0  0  0  0  0  0  0  0  0  0  0
   15.4282   -2.9012   -9.5797 C   0  0  2  0  0  0  0  0  0  0  0  0
   14.7544   -4.1665   -9.6901 N   0  0  0  0  0  0  0  0  0  0  0  0
   14.9518   -2.0902   -8.4477 C   0  0  0  0  0  0  0  0  0  0  0  0
   13.8002   -2.2558   -8.0074 O   0  0  0  0  0  0  0  0  0  0  0  0
   15.7765   -1.1519   -7.8775 O   0  0  0  0  0  0  0  0  0  0  0  0
  2  3  1  1
  2  1  1  0
  4  2  1  0
  5  4  1  0
  5  6  1  6
  7  5  1  0
  7 14  1  0
  8  7  2  0
 10  9  1  0
 11 10  1  0
 11 12  1  6
 13 14  1  1
 13 11  1  0
 15 13  1  0
 16 15  2  0
 18 17  1  6
 18 20  1  0
 19 18  1  0
 20 22  1  0
 20 21  1  6
 21 15  1  0
 22 24  1  0
 23 22  2  0
M  END
$$$$
