LIV.pdb
     RDKit          3D

 24 23  0  0  1  0  0  0  0  0999 V2000
   27.6109  -17.5209  -17.3778 C   0  0  0  0  0  0  0  0  0  0  0  0
   28.2056  -18.4406  -16.3580 C   0  0  1  0  0  0  0  0  0  0  0  0
   28.7459  -17.5982  -15.2238 C   0  0  0  0  0  0  0  0  0  0  0  0
   27.2063  -19.4668  -15.8661 C   0  0  0  0  0  0  0  0  0  0  0  0
   27.7440  -20.2425  -14.6906 C   0  0  2  0  0  0  0  0  0  0  0  0
   28.6264  -21.2708  -15.2078 N   0  0  0  0  0  0  0  0  0  0  0  0
   26.7023  -20.8428  -13.8614 C   0  0  0  0  0  0  0  0  0  0  0  0
   26.0741  -21.8754  -14.2800 O   0  0  0  0  0  0  0  0  0  0  0  0
   26.6612  -20.7220   -8.4184 C   0  0  0  0  0  0  0  0  0  0  0  0
   26.4591  -21.1051   -9.8521 C   0  0  0  0  0  0  0  0  0  0  0  0
   25.1986  -20.4926  -10.4342 C   0  0  2  0  0  0  0  0  0  0  0  0
   24.0362  -21.0233   -9.6638 C   0  0  0  0  0  0  0  0  0  0  0  0
   25.1292  -20.8370  -11.8802 C   0  0  2  0  0  0  0  0  0  0  0  0
   26.3038  -20.3729  -12.5858 N   0  0  0  0  0  0  0  0  0  0  0  0
   23.8758  -20.4050  -12.5392 C   0  0  0  0  0  0  0  0  0  0  0  0
   23.6625  -19.1712  -12.6629 O   0  0  0  0  0  0  0  0  0  0  0  0
   22.6673  -21.1926  -15.9581 C   0  0  0  0  0  0  0  0  0  0  0  0
   21.4983  -21.5183  -15.0436 C   0  0  1  0  0  0  0  0  0  0  0  0
   21.4376  -23.0238  -14.9062 C   0  0  0  0  0  0  0  0  0  0  0  0
   21.6779  -20.8923  -13.6795 C   0  0  2  0  0  0  0  0  0  0  0  0
   22.8974  -21.3076  -13.0412 N   0  0  0  0  0  0  0  0  0  0  0  0
   20.4864  -21.1051  -12.8421 C   0  0  0  0  0  0  0  0  0  0  0  0
   20.5349  -21.8978  -11.8846 O   0  0  0  0  0  0  0  0  0  0  0  0
   19.3224  -20.4302  -13.1164 O   0  0  0  0  0  0  0  0  0  0  0  0
  2  3  1  1
  2  1  1  0
  4  2  1  0
  5  4  1  0
  5  6  1  6
  7  5  1  0
  7 14  1  0
  8  7  2  0
 10  9  1  0
 11 10  1  0
 11 12  1  1
 13 14  1  6
 13 11  1  0
 15 13  1  0
 16 15  2  0
 18 17  1  6
 18 20  1  0
 19 18  1  0
 20 22  1  0
 20 21  1  1
 21 15  1  0
 22 24  1  0
 23 22  2  0
M  END
$$$$
