LIV.pdb
     RDKit          3D

 24 23  0  0  1  0  0  0  0  0999 V2000
   20.1969  -18.7517  -10.4760 C   0  0  0  0  0  0  0  0  0  0  0  0
   21.2479  -19.5465  -11.1854 C   0  0  1  0  0  0  0  0  0  0  0  0
   21.7682  -18.7153  -12.3372 C   0  0  0  0  0  0  0  0  0  0  0  0
   22.3637  -19.9731  -10.2544 C   0  0  0  0  0  0  0  0  0  0  0  0
   23.4744  -20.6643  -11.0033 C   0  0  2  0  0  0  0  0  0  0  0  0
   22.9536  -21.9234  -11.5004 N   0  0  0  0  0  0  0  0  0  0  0  0
   24.6678  -20.8970  -10.1940 C   0  0  0  0  0  0  0  0  0  0  0  0
   24.6024  -21.6642   -9.1725 O   0  0  0  0  0  0  0  0  0  0  0  0
   29.0224  -20.8706  -12.8134 C   0  0  0  0  0  0  0  0  0  0  0  0
   28.2912  -21.4001  -11.6185 C   0  0  0  0  0  0  0  0  0  0  0  0
   28.3621  -20.4487  -10.4383 C   0  0  2  0  0  0  0  0  0  0  0  0
   29.5879  -20.7835   -9.6560 C   0  0  0  0  0  0  0  0  0  0  0  0
   27.1169  -20.5950   -9.6368 C   0  0  2  0  0  0  0  0  0  0  0  0
   25.9432  -20.3321  -10.4409 N   0  0  0  0  0  0  0  0  0  0  0  0
   27.1184  -19.8129   -8.3798 C   0  0  0  0  0  0  0  0  0  0  0  0
   26.6800  -18.6340   -8.4112 O   0  0  0  0  0  0  0  0  0  0  0  0
   26.9608  -21.4664   -4.5436 C   0  0  0  0  0  0  0  0  0  0  0  0
   27.9965  -20.3685   -4.7193 C   0  0  1  0  0  0  0  0  0  0  0  0
   29.3438  -21.0389   -4.8759 C   0  0  0  0  0  0  0  0  0  0  0  0
   27.7037  -19.5287   -5.9416 C   0  0  2  0  0  0  0  0  0  0  0  0
   27.5884  -20.3199   -7.1364 N   0  0  0  0  0  0  0  0  0  0  0  0
   28.6736  -18.4290   -6.0688 C   0  0  0  0  0  0  0  0  0  0  0  0
   29.5039  -18.4384   -6.9950 O   0  0  0  0  0  0  0  0  0  0  0  0
   28.6629  -17.3936   -5.1668 O   0  0  0  0  0  0  0  0  0  0  0  0
  2  3  1  6
  2  1  1  0
  4  2  1  0
  5  4  1  0
  5  6  1  1
  7  5  1  0
  7 14  1  0
  8  7  2  0
 10  9  1  0
 11 10  1  0
 11 12  1  1
 13 14  1  6
 13 11  1  0
 15 13  1  0
 16 15  2  0
 18 17  1  6
 18 20  1  0
 19 18  1  0
 20 22  1  0
 20 21  1  6
 21 15  1  0
 22 24  1  0
 23 22  2  0
M  END
$$$$
