LIV.pdb
     RDKit          3D

 24 23  0  0  1  0  0  0  0  0999 V2000
   28.1456  -18.1387  -18.2660 C   0  0  0  0  0  0  0  0  0  0  0  0
   28.5434  -19.1474  -17.2347 C   0  0  1  0  0  0  0  0  0  0  0  0
   29.4018  -18.4507  -16.2024 C   0  0  0  0  0  0  0  0  0  0  0  0
   27.3418  -19.8186  -16.6025 C   0  0  0  0  0  0  0  0  0  0  0  0
   27.7507  -20.7472  -15.4875 C   0  0  2  0  0  0  0  0  0  0  0  0
   28.3027  -21.9447  -16.0916 N   0  0  0  0  0  0  0  0  0  0  0  0
   26.6550  -21.0962  -14.5870 C   0  0  0  0  0  0  0  0  0  0  0  0
   25.7717  -21.9428  -14.9602 O   0  0  0  0  0  0  0  0  0  0  0  0
   24.9378  -21.0023   -8.6311 C   0  0  0  0  0  0  0  0  0  0  0  0
   24.6432  -21.2074  -10.0851 C   0  0  0  0  0  0  0  0  0  0  0  0
   25.7920  -20.7578  -10.9691 C   0  0  2  0  0  0  0  0  0  0  0  0
   26.0714  -19.3251  -10.6596 C   0  0  0  0  0  0  0  0  0  0  0  0
   25.4062  -20.9691  -12.3906 C   0  0  2  0  0  0  0  0  0  0  0  0
   26.4681  -20.5661  -13.2866 N   0  0  0  0  0  0  0  0  0  0  0  0
   24.1073  -20.3597  -12.7556 C   0  0  0  0  0  0  0  0  0  0  0  0
   24.0016  -19.1071  -12.7041 O   0  0  0  0  0  0  0  0  0  0  0  0
   21.1253  -22.5622  -14.9694 C   0  0  0  0  0  0  0  0  0  0  0  0
   21.3757  -21.0645  -15.0238 C   0  0  1  0  0  0  0  0  0  0  0  0
   20.0938  -20.4083  -15.4878 C   0  0  0  0  0  0  0  0  0  0  0  0
   21.7591  -20.5227  -13.6658 C   0  0  2  0  0  0  0  0  0  0  0  0
   22.9699  -21.1118  -13.1617 N   0  0  0  0  0  0  0  0  0  0  0  0
   20.6332  -20.6214  -12.7231 C   0  0  0  0  0  0  0  0  0  0  0  0
   19.6640  -19.8491  -12.8316 O   0  0  0  0  0  0  0  0  0  0  0  0
   20.6513  -21.5643  -11.7250 O   0  0  0  0  0  0  0  0  0  0  0  0
  2  3  1  1
  2  1  1  0
  4  2  1  0
  5  4  1  0
  5  6  1  6
  7  5  1  0
  7 14  1  0
  8  7  2  0
 10  9  1  0
 11 10  1  0
 11 12  1  6
 13 14  1  6
 13 11  1  0
 15 13  1  0
 16 15  2  0
 18 17  1  1
 18 20  1  0
 19 18  1  0
 20 22  1  0
 20 21  1  1
 21 15  1  0
 22 24  1  0
 23 22  2  0
M  END
$$$$
