LIV.pdb
     RDKit          3D

 24 23  0  0  1  0  0  0  0  0999 V2000
   26.6300  -16.6559  -17.1584 C   0  0  0  0  0  0  0  0  0  0  0  0
   27.4831  -17.5632  -16.3288 C   0  0  1  0  0  0  0  0  0  0  0  0
   28.3682  -16.7048  -15.4525 C   0  0  0  0  0  0  0  0  0  0  0  0
   26.6548  -18.5312  -15.5098 C   0  0  0  0  0  0  0  0  0  0  0  0
   27.5254  -19.4256  -14.6645 C   0  0  2  0  0  0  0  0  0  0  0  0
   28.3049  -20.2571  -15.5616 N   0  0  0  0  0  0  0  0  0  0  0  0
   26.7731  -20.2595  -13.7307 C   0  0  0  0  0  0  0  0  0  0  0  0
   26.2723  -21.3667  -14.1299 O   0  0  0  0  0  0  0  0  0  0  0  0
   25.8169  -21.4908   -7.8170 C   0  0  0  0  0  0  0  0  0  0  0  0
   25.2070  -21.3723   -9.1797 C   0  0  0  0  0  0  0  0  0  0  0  0
   25.9607  -20.3915  -10.0589 C   0  0  2  0  0  0  0  0  0  0  0  0
   25.4772  -19.0190   -9.7289 C   0  0  0  0  0  0  0  0  0  0  0  0
   25.7228  -20.7527  -11.4828 C   0  0  2  0  0  0  0  0  0  0  0  0
   26.5346  -19.9479  -12.3695 N   0  0  0  0  0  0  0  0  0  0  0  0
   24.2945  -20.7436  -11.8723 C   0  0  0  0  0  0  0  0  0  0  0  0
   23.6756  -19.6486  -11.8414 O   0  0  0  0  0  0  0  0  0  0  0  0
   21.8904  -24.3710  -12.6318 C   0  0  0  0  0  0  0  0  0  0  0  0
   21.8435  -23.1275  -13.5037 C   0  0  1  0  0  0  0  0  0  0  0  0
   20.4296  -22.9942  -14.0254 C   0  0  0  0  0  0  0  0  0  0  0  0
   22.2111  -21.8909  -12.7158 C   0  0  2  0  0  0  0  0  0  0  0  0
   23.5811  -21.9050  -12.2799 N   0  0  0  0  0  0  0  0  0  0  0  0
   21.2581  -21.6645  -11.6173 C   0  0  0  0  0  0  0  0  0  0  0  0
   21.5607  -21.9925  -10.4562 O   0  0  0  0  0  0  0  0  0  0  0  0
   20.0363  -21.0921  -11.8727 O   0  0  0  0  0  0  0  0  0  0  0  0
  2  3  1  1
  2  1  1  0
  4  2  1  0
  5  4  1  0
  5  6  1  6
  7  5  1  0
  7 14  1  0
  8  7  2  0
 10  9  1  0
 11 10  1  0
 11 12  1  6
 13 14  1  6
 13 11  1  0
 15 13  1  0
 16 15  2  0
 18 17  1  1
 18 20  1  0
 19 18  1  0
 20 22  1  0
 20 21  1  1
 21 15  1  0
 22 24  1  0
 23 22  2  0
M  END
$$$$
