LIV.pdb
     RDKit          3D

 24 23  0  0  1  0  0  0  0  0999 V2000
   17.0759  -23.4619  -14.4723 C   0  0  0  0  0  0  0  0  0  0  0  0
   17.9943  -23.4422  -13.2910 C   0  0  1  0  0  0  0  0  0  0  0  0
   18.8916  -24.6571  -13.3729 C   0  0  0  0  0  0  0  0  0  0  0  0
   18.7953  -22.1590  -13.2147 C   0  0  0  0  0  0  0  0  0  0  0  0
   19.8970  -22.2554  -12.1903 C   0  0  2  0  0  0  0  0  0  0  0  0
   19.3039  -22.0413  -10.8841 N   0  0  0  0  0  0  0  0  0  0  0  0
   20.9847  -21.3061  -12.4115 C   0  0  0  0  0  0  0  0  0  0  0  0
   20.7646  -20.0510  -12.2994 O   0  0  0  0  0  0  0  0  0  0  0  0
   25.7613  -21.2827  -10.2182 C   0  0  0  0  0  0  0  0  0  0  0  0
   24.4952  -20.9356  -10.9390 C   0  0  0  0  0  0  0  0  0  0  0  0
   24.6425  -21.0621  -12.4442 C   0  0  2  0  0  0  0  0  0  0  0  0
   25.7600  -20.1693  -12.8693 C   0  0  0  0  0  0  0  0  0  0  0  0
   23.3473  -20.6960  -13.0789 C   0  0  2  0  0  0  0  0  0  0  0  0
   22.3147  -21.6551  -12.7521 N   0  0  0  0  0  0  0  0  0  0  0  0
   23.4421  -20.4534  -14.5363 C   0  0  0  0  0  0  0  0  0  0  0  0
   23.9262  -21.3608  -15.2609 O   0  0  0  0  0  0  0  0  0  0  0  0
   22.0721  -16.7550  -16.2524 C   0  0  0  0  0  0  0  0  0  0  0  0
   22.0089  -18.0475  -17.0489 C   0  0  1  0  0  0  0  0  0  0  0  0
   22.2496  -17.6962  -18.5007 C   0  0  0  0  0  0  0  0  0  0  0  0
   23.0598  -19.0299  -16.5847 C   0  0  2  0  0  0  0  0  0  0  0  0
   23.0161  -19.2502  -15.1646 N   0  0  0  0  0  0  0  0  0  0  0  0
   24.3942  -18.6398  -17.0676 C   0  0  0  0  0  0  0  0  0  0  0  0
   25.1338  -17.9423  -16.3507 O   0  0  0  0  0  0  0  0  0  0  0  0
   24.8233  -19.0448  -18.3076 O   0  0  0  0  0  0  0  0  0  0  0  0
  2  3  1  6
  2  1  1  0
  4  2  1  0
  5  4  1  0
  5  6  1  1
  7  5  1  0
  7 14  1  0
  8  7  2  0
 10  9  1  0
 11 10  1  0
 11 12  1  6
 13 14  1  6
 13 11  1  0
 15 13  1  0
 16 15  2  0
 18 17  1  1
 18 20  1  0
 19 18  1  0
 20 22  1  0
 20 21  1  1
 21 15  1  0
 22 24  1  0
 23 22  2  0
M  END
$$$$
