DWM.pdb
     RDKit          3D

 31 32  0  0  1  0  0  0  0  0999 V2000
   22.1692  -22.1684  -11.3575 N   0  0  0  0  0  0  0  0  0  0  0  0
   22.7798  -21.5941  -12.5234 C   0  0  1  0  0  0  0  0  0  0  0  0
   21.7864  -20.8592  -13.3891 C   0  0  0  0  0  0  0  0  0  0  0  0
   21.0719  -21.8531  -14.2184 C   0  0  0  0  0  0  0  0  0  0  0  0
   19.8887  -21.6187  -14.6081 O   0  0  0  0  0  0  0  0  0  0  0  0
   23.9098  -20.7389  -12.1008 C   0  0  0  0  0  0  0  0  0  0  0  0
   23.7195  -19.5705  -11.6946 O   0  0  0  0  0  0  0  0  0  0  0  0
   21.6619  -23.0393  -14.5835 O   0  0  0  0  0  0  0  0  0  0  0  0
   25.2188  -21.2447  -12.1556 N   0  0  0  0  0  0  0  0  0  0  0  0
   26.3938  -20.5509  -11.7365 C   0  0  1  0  0  0  0  0  0  0  0  0
   27.0476  -21.2554  -10.5912 C   0  0  0  0  0  0  0  0  0  0  0  0
   26.6324  -20.7677   -9.2586 C   0  0  0  0  0  0  0  0  0  0  0  0
   25.3505  -20.4434   -8.8464 C   0  0  0  0  0  0  0  0  0  0  0  0
   25.3859  -20.0821   -7.5681 N   0  0  0  0  0  0  0  0  0  0  0  0
   26.6442  -20.1592   -7.1349 C   0  0  0  0  0  0  0  0  0  0  0  0
   27.1924  -19.8856   -5.9042 C   0  0  0  0  0  0  0  0  0  0  0  0
   28.5493  -20.0344   -5.6993 C   0  0  0  0  0  0  0  0  0  0  0  0
   29.3844  -20.4518   -6.6953 C   0  0  0  0  0  0  0  0  0  0  0  0
   28.8269  -20.7268   -7.9348 C   0  0  0  0  0  0  0  0  0  0  0  0
   27.4657  -20.5908   -8.1810 C   0  0  0  0  0  0  0  0  0  0  0  0
   27.3438  -20.4904  -12.8706 C   0  0  0  0  0  0  0  0  0  0  0  0
   28.4329  -21.0951  -12.8155 O   0  0  0  0  0  0  0  0  0  0  0  0
   30.3707  -24.4312  -17.1380 C   0  0  0  0  0  0  0  0  0  0  0  0
   28.7578  -23.7711  -16.6284 S   0  0  0  0  0  0  0  0  0  0  0  0
   28.9094  -22.0585  -16.1230 C   0  0  0  0  0  0  0  0  0  0  0  0
   27.6415  -21.4423  -15.6651 C   0  0  0  0  0  0  0  0  0  0  0  0
   27.6703  -19.9996  -15.3033 C   0  0  2  0  0  0  0  0  0  0  0  0
   27.0191  -19.7307  -14.0527 N   0  0  0  0  0  0  0  0  0  0  0  0
   27.1012  -19.1368  -16.3633 C   0  0  0  0  0  0  0  0  0  0  0  0
   25.9186  -18.4474  -16.1471 O   0  0  0  0  0  0  0  0  0  0  0  0
   27.6964  -19.0329  -17.4603 O   0  0  0  0  0  0  0  0  0  0  0  0
  2  1  1  1
  3  4  1  0
  3  2  1  0
  4  5  2  0
  6  2  1  0
  6  7  2  0
  8  4  1  0
  9  6  1  0
 10  9  1  0
 10 11  1  1
 12 20  1  0
 12 11  1  0
 13 12  2  0
 14 13  1  0
 14 15  1  0
 15 16  1  0
 15 20  2  0
 16 17  2  0
 17 18  1  0
 19 18  2  0
 20 19  1  0
 21 10  1  0
 22 21  2  0
 23 24  1  0
 24 25  1  0
 25 26  1  0
 27 26  1  6
 27 28  1  0
 27 29  1  0
 28 21  1  0
 29 30  1  0
 31 29  2  0
M  END
$$$$
