DWM.pdb
     RDKit          3D

 31 32  0  0  1  0  0  0  0  0999 V2000
   27.9769  -23.7663  -17.0226 N   0  0  0  0  0  0  0  0  0  0  0  0
   27.3412  -22.4913  -16.8423 C   0  0  1  0  0  0  0  0  0  0  0  0
   26.4094  -22.1483  -17.9783 C   0  0  0  0  0  0  0  0  0  0  0  0
   27.2266  -21.7117  -19.1306 C   0  0  0  0  0  0  0  0  0  0  0  0
   27.9103  -20.6471  -19.0543 O   0  0  0  0  0  0  0  0  0  0  0  0
   26.6663  -22.4740  -15.5266 C   0  0  0  0  0  0  0  0  0  0  0  0
   26.1105  -23.4988  -15.0717 O   0  0  0  0  0  0  0  0  0  0  0  0
   27.2666  -22.4370  -20.2972 O   0  0  0  0  0  0  0  0  0  0  0  0
   26.6477  -21.2884  -14.7739 N   0  0  0  0  0  0  0  0  0  0  0  0
   26.0107  -21.1204  -13.5076 C   0  0  1  0  0  0  0  0  0  0  0  0
   26.6267  -19.9893  -12.7481 C   0  0  0  0  0  0  0  0  0  0  0  0
   27.4943  -20.4091  -11.6269 C   0  0  0  0  0  0  0  0  0  0  0  0
   28.8025  -20.8580  -11.7015 C   0  0  0  0  0  0  0  0  0  0  0  0
   29.2472  -21.0999  -10.4729 N   0  0  0  0  0  0  0  0  0  0  0  0
   28.2754  -20.8253   -9.6027 C   0  0  0  0  0  0  0  0  0  0  0  0
   28.2398  -20.9191   -8.2316 C   0  0  0  0  0  0  0  0  0  0  0  0
   27.0933  -20.5809   -7.5415 C   0  0  0  0  0  0  0  0  0  0  0  0
   25.9696  -20.1477   -8.1844 C   0  0  0  0  0  0  0  0  0  0  0  0
   26.0104  -20.0544   -9.5673 C   0  0  0  0  0  0  0  0  0  0  0  0
   27.1455  -20.3842  -10.2984 C   0  0  0  0  0  0  0  0  0  0  0  0
   24.5763  -20.8275  -13.7288 C   0  0  0  0  0  0  0  0  0  0  0  0
   24.2250  -20.0205  -14.6121 O   0  0  0  0  0  0  0  0  0  0  0  0
   17.2846  -23.7162  -13.6106 C   0  0  0  0  0  0  0  0  0  0  0  0
   18.9956  -23.9022  -13.0320 S   0  0  0  0  0  0  0  0  0  0  0  0
   19.8917  -22.3605  -13.2097 C   0  0  0  0  0  0  0  0  0  0  0  0
   21.3522  -22.4734  -12.9837 C   0  0  0  0  0  0  0  0  0  0  0  0
   22.1729  -21.2466  -13.1693 C   0  0  2  0  0  0  0  0  0  0  0  0
   23.5688  -21.4735  -12.9240 N   0  0  0  0  0  0  0  0  0  0  0  0
   21.6944  -20.1132  -12.3454 C   0  0  0  0  0  0  0  0  0  0  0  0
   20.6476  -19.3188  -12.7853 O   0  0  0  0  0  0  0  0  0  0  0  0
   22.2429  -19.8755  -11.2449 O   0  0  0  0  0  0  0  0  0  0  0  0
  2  1  1  6
  3  4  1  0
  3  2  1  0
  4  5  2  0
  6  2  1  0
  6  7  2  0
  8  4  1  0
  9  6  1  0
 10  9  1  0
 10 11  1  6
 12 20  1  0
 12 11  1  0
 13 12  2  0
 14 13  1  0
 14 15  1  0
 15 16  1  0
 15 20  2  0
 16 17  2  0
 17 18  1  0
 19 18  2  0
 20 19  1  0
 21 10  1  0
 22 21  2  0
 23 24  1  0
 24 25  1  0
 25 26  1  0
 27 26  1  1
 27 28  1  0
 27 29  1  0
 28 21  1  0
 29 30  1  0
 31 29  2  0
M  END
$$$$
