DWM.pdb
     RDKit          3D

 31 32  0  0  1  0  0  0  0  0999 V2000
   26.9287  -22.0531  -14.1228 N   0  0  0  0  0  0  0  0  0  0  0  0
   26.3205  -20.9078  -13.5059 C   0  0  1  0  0  0  0  0  0  0  0  0
   25.1973  -20.3370  -14.3359 C   0  0  0  0  0  0  0  0  0  0  0  0
   25.7773  -19.7751  -15.5744 C   0  0  0  0  0  0  0  0  0  0  0  0
   26.8539  -19.1080  -15.5230 O   0  0  0  0  0  0  0  0  0  0  0  0
   25.8907  -21.2716  -12.1385 C   0  0  0  0  0  0  0  0  0  0  0  0
   25.0659  -22.1924  -11.9437 O   0  0  0  0  0  0  0  0  0  0  0  0
   25.1744  -19.9580  -16.7958 O   0  0  0  0  0  0  0  0  0  0  0  0
   26.4158  -20.5728  -11.0391 N   0  0  0  0  0  0  0  0  0  0  0  0
   26.1299  -20.8489   -9.6681 C   0  0  1  0  0  0  0  0  0  0  0  0
   27.1772  -20.2612   -8.7775 C   0  0  0  0  0  0  0  0  0  0  0  0
   26.9353  -20.4679   -7.3336 C   0  0  0  0  0  0  0  0  0  0  0  0
   25.9616  -21.2629   -6.7519 C   0  0  0  0  0  0  0  0  0  0  0  0
   26.0957  -21.2136   -5.4308 N   0  0  0  0  0  0  0  0  0  0  0  0
   27.1205  -20.4149   -5.1328 C   0  0  0  0  0  0  0  0  0  0  0  0
   27.6481  -20.0395   -3.9201 C   0  0  0  0  0  0  0  0  0  0  0  0
   28.7248  -19.1775   -3.8676 C   0  0  0  0  0  0  0  0  0  0  0  0
   29.2968  -18.6732   -5.0000 C   0  0  0  0  0  0  0  0  0  0  0  0
   28.7615  -19.0549   -6.2208 C   0  0  0  0  0  0  0  0  0  0  0  0
   27.6791  -19.9215   -6.3161 C   0  0  0  0  0  0  0  0  0  0  0  0
   24.8173  -20.2564   -9.3245 C   0  0  0  0  0  0  0  0  0  0  0  0
   24.6191  -19.0337   -9.4673 O   0  0  0  0  0  0  0  0  0  0  0  0
   18.9221  -19.6084  -13.2447 C   0  0  0  0  0  0  0  0  0  0  0  0
   20.5745  -20.2292  -12.8196 S   0  0  0  0  0  0  0  0  0  0  0  0
   20.7749  -20.3197  -11.0410 C   0  0  0  0  0  0  0  0  0  0  0  0
   22.1462  -20.6659  -10.5977 C   0  0  0  0  0  0  0  0  0  0  0  0
   22.3816  -20.8015   -9.1351 C   0  0  2  0  0  0  0  0  0  0  0  0
   23.7524  -21.0883   -8.8205 N   0  0  0  0  0  0  0  0  0  0  0  0
   21.4991  -21.8121   -8.5091 C   0  0  0  0  0  0  0  0  0  0  0  0
   21.8967  -22.4744   -7.3585 O   0  0  0  0  0  0  0  0  0  0  0  0
   20.3875  -22.0662   -9.0269 O   0  0  0  0  0  0  0  0  0  0  0  0
  2  1  1  6
  3  4  1  0
  3  2  1  0
  4  5  2  0
  6  2  1  0
  6  7  2  0
  8  4  1  0
  9  6  1  0
 10  9  1  0
 10 11  1  1
 12 20  1  0
 12 11  1  0
 13 12  2  0
 14 13  1  0
 14 15  1  0
 15 16  1  0
 15 20  2  0
 16 17  2  0
 17 18  1  0
 19 18  2  0
 20 19  1  0
 21 10  1  0
 22 21  2  0
 23 24  1  0
 24 25  1  0
 25 26  1  0
 27 26  1  6
 27 28  1  0
 27 29  1  0
 28 21  1  0
 29 30  1  0
 31 29  2  0
M  END
$$$$
