DWM.pdb
     RDKit          3D

 31 32  0  0  1  0  0  0  0  0999 V2000
   28.4351  -21.7897  -17.1357 N   0  0  0  0  0  0  0  0  0  0  0  0
   27.3921  -22.7682  -17.2644 C   0  0  1  0  0  0  0  0  0  0  0  0
   27.9242  -24.1291  -17.6399 C   0  0  0  0  0  0  0  0  0  0  0  0
   28.2959  -24.1013  -19.0707 C   0  0  0  0  0  0  0  0  0  0  0  0
   28.0084  -23.0907  -19.7797 O   0  0  0  0  0  0  0  0  0  0  0  0
   26.5993  -22.7908  -16.0162 C   0  0  0  0  0  0  0  0  0  0  0  0
   26.4673  -23.8441  -15.3533 O   0  0  0  0  0  0  0  0  0  0  0  0
   28.9530  -25.1539  -19.6614 O   0  0  0  0  0  0  0  0  0  0  0  0
   25.9835  -21.6116  -15.5660 N   0  0  0  0  0  0  0  0  0  0  0  0
   25.3069  -21.4537  -14.3191 C   0  0  1  0  0  0  0  0  0  0  0  0
   25.5564  -20.0952  -13.7466 C   0  0  0  0  0  0  0  0  0  0  0  0
   26.9560  -19.8552  -13.3347 C   0  0  0  0  0  0  0  0  0  0  0  0
   27.8273  -18.9042  -13.8396 C   0  0  0  0  0  0  0  0  0  0  0  0
   28.9797  -18.9817  -13.1826 N   0  0  0  0  0  0  0  0  0  0  0  0
   28.8892  -19.9489  -12.2697 C   0  0  0  0  0  0  0  0  0  0  0  0
   29.8053  -20.4159  -11.3571 C   0  0  0  0  0  0  0  0  0  0  0  0
   29.4744  -21.4536  -10.5092 C   0  0  0  0  0  0  0  0  0  0  0  0
   28.2449  -22.0457  -10.5446 C   0  0  0  0  0  0  0  0  0  0  0  0
   27.3242  -21.5710  -11.4665 C   0  0  0  0  0  0  0  0  0  0  0  0
   27.6181  -20.5277  -12.3364 C   0  0  0  0  0  0  0  0  0  0  0  0
   23.8526  -21.6241  -14.5391 C   0  0  0  0  0  0  0  0  0  0  0  0
   23.2849  -21.0460  -15.4869 O   0  0  0  0  0  0  0  0  0  0  0  0
   17.2900  -25.7736  -12.8361 C   0  0  0  0  0  0  0  0  0  0  0  0
   19.0878  -25.6074  -12.6442 S   0  0  0  0  0  0  0  0  0  0  0  0
   19.6411  -24.0138  -13.2490 C   0  0  0  0  0  0  0  0  0  0  0  0
   21.1129  -23.8390  -13.2516 C   0  0  0  0  0  0  0  0  0  0  0  0
   21.6530  -22.5703  -13.8100 C   0  0  2  0  0  0  0  0  0  0  0  0
   23.0762  -22.4618  -13.6585 N   0  0  0  0  0  0  0  0  0  0  0  0
   20.9932  -21.3731  -13.2410 C   0  0  0  0  0  0  0  0  0  0  0  0
   19.8784  -20.8271  -13.8571 O   0  0  0  0  0  0  0  0  0  0  0  0
   21.4497  -20.8548  -12.1964 O   0  0  0  0  0  0  0  0  0  0  0  0
  2  1  1  1
  3  4  1  0
  3  2  1  0
  4  5  2  0
  6  2  1  0
  6  7  2  0
  8  4  1  0
  9  6  1  0
 10  9  1  0
 10 11  1  6
 12 20  1  0
 12 11  1  0
 13 12  2  0
 14 13  1  0
 14 15  1  0
 15 16  1  0
 15 20  2  0
 16 17  2  0
 17 18  1  0
 19 18  2  0
 20 19  1  0
 21 10  1  0
 22 21  2  0
 23 24  1  0
 24 25  1  0
 25 26  1  0
 27 26  1  1
 27 28  1  0
 27 29  1  0
 28 21  1  0
 29 30  1  0
 31 29  2  0
M  END
$$$$
