DWM.pdb
     RDKit          3D

 31 32  0  0  1  0  0  0  0  0999 V2000
   26.2493  -21.4338  -14.0331 N   0  0  0  0  0  0  0  0  0  0  0  0
   25.4688  -20.4739  -13.3042 C   0  0  1  0  0  0  0  0  0  0  0  0
   24.1620  -20.1573  -13.9887 C   0  0  0  0  0  0  0  0  0  0  0  0
   24.4626  -19.6271  -15.3358 C   0  0  0  0  0  0  0  0  0  0  0  0
   25.0762  -18.5250  -15.4597 O   0  0  0  0  0  0  0  0  0  0  0  0
   25.2839  -20.9587  -11.9194 C   0  0  0  0  0  0  0  0  0  0  0  0
   24.6753  -22.0266  -11.6843 O   0  0  0  0  0  0  0  0  0  0  0  0
   24.0906  -20.3044  -16.4724 O   0  0  0  0  0  0  0  0  0  0  0  0
   25.7991  -20.2093  -10.8492 N   0  0  0  0  0  0  0  0  0  0  0  0
   25.7856  -20.6050   -9.4777 C   0  0  1  0  0  0  0  0  0  0  0  0
   26.8364  -19.8759   -8.7033 C   0  0  0  0  0  0  0  0  0  0  0  0
   26.9943  -20.3367   -7.3073 C   0  0  0  0  0  0  0  0  0  0  0  0
   26.7099  -21.5947   -6.8022 C   0  0  0  0  0  0  0  0  0  0  0  0
   27.0222  -21.6228   -5.5110 N   0  0  0  0  0  0  0  0  0  0  0  0
   27.4986  -20.4288   -5.1584 C   0  0  0  0  0  0  0  0  0  0  0  0
   27.9452  -19.9583   -3.9463 C   0  0  0  0  0  0  0  0  0  0  0  0
   28.3887  -18.6567   -3.8268 C   0  0  0  0  0  0  0  0  0  0  0  0
   28.3999  -17.8013   -4.8907 C   0  0  0  0  0  0  0  0  0  0  0  0
   27.9488  -18.2804   -6.1112 C   0  0  0  0  0  0  0  0  0  0  0  0
   27.4957  -19.5844   -6.2730 C   0  0  0  0  0  0  0  0  0  0  0  0
   24.4581  -20.2910   -8.9023 C   0  0  0  0  0  0  0  0  0  0  0  0
   23.9199  -19.1874   -9.1202 O   0  0  0  0  0  0  0  0  0  0  0  0
   20.1071  -22.2220  -11.5733 C   0  0  0  0  0  0  0  0  0  0  0  0
   19.0800  -21.4978  -10.2628 S   0  0  0  0  0  0  0  0  0  0  0  0
   20.0416  -21.2561   -8.7701 C   0  0  0  0  0  0  0  0  0  0  0  0
   21.5071  -21.3638   -8.9635 C   0  0  0  0  0  0  0  0  0  0  0  0
   22.3762  -21.1135   -7.7823 C   0  0  2  0  0  0  0  0  0  0  0  0
   23.7721  -21.2594   -8.0828 N   0  0  0  0  0  0  0  0  0  0  0  0
   22.0188  -21.9636   -6.6239 C   0  0  0  0  0  0  0  0  0  0  0  0
   21.1459  -21.4968   -5.6540 O   0  0  0  0  0  0  0  0  0  0  0  0
   22.5114  -23.1107   -6.5250 O   0  0  0  0  0  0  0  0  0  0  0  0
  2  1  1  6
  3  4  1  0
  3  2  1  0
  4  5  2  0
  6  2  1  0
  6  7  2  0
  8  4  1  0
  9  6  1  0
 10  9  1  0
 10 11  1  1
 12 20  1  0
 12 11  1  0
 13 12  2  0
 14 13  1  0
 14 15  1  0
 15 16  1  0
 15 20  2  0
 16 17  2  0
 17 18  1  0
 19 18  2  0
 20 19  1  0
 21 10  1  0
 22 21  2  0
 23 24  1  0
 24 25  1  0
 25 26  1  0
 27 26  1  6
 27 28  1  0
 27 29  1  0
 28 21  1  0
 29 30  1  0
 31 29  2  0
M  END
$$$$
