DWM.pdb
     RDKit          3D

 31 32  0  0  1  0  0  0  0  0999 V2000
   28.0977  -22.4072  -15.4070 N   0  0  0  0  0  0  0  0  0  0  0  0
   27.7986  -21.1666  -14.7486 C   0  0  1  0  0  0  0  0  0  0  0  0
   27.0672  -20.2008  -15.6478 C   0  0  0  0  0  0  0  0  0  0  0  0
   28.0189  -19.7053  -16.6651 C   0  0  0  0  0  0  0  0  0  0  0  0
   29.2401  -19.5466  -16.3651 O   0  0  0  0  0  0  0  0  0  0  0  0
   27.0606  -21.4527  -13.4994 C   0  0  0  0  0  0  0  0  0  0  0  0
   26.0187  -22.1459  -13.5086 O   0  0  0  0  0  0  0  0  0  0  0  0
   27.6116  -19.4082  -17.9436 O   0  0  0  0  0  0  0  0  0  0  0  0
   27.5354  -20.9386  -12.2818 N   0  0  0  0  0  0  0  0  0  0  0  0
   26.8912  -21.0778  -11.0156 C   0  0  1  0  0  0  0  0  0  0  0  0
   27.7888  -20.6241   -9.9093 C   0  0  0  0  0  0  0  0  0  0  0  0
   27.1202  -20.4930   -8.5971 C   0  0  0  0  0  0  0  0  0  0  0  0
   25.7826  -20.7121   -8.3119 C   0  0  0  0  0  0  0  0  0  0  0  0
   25.5819  -20.5269   -7.0115 N   0  0  0  0  0  0  0  0  0  0  0  0
   26.7403  -20.1948   -6.4414 C   0  0  0  0  0  0  0  0  0  0  0  0
   27.0499  -19.8979   -5.1352 C   0  0  0  0  0  0  0  0  0  0  0  0
   28.3436  -19.5673   -4.7857 C   0  0  0  0  0  0  0  0  0  0  0  0
   29.3480  -19.5231   -5.7092 C   0  0  0  0  0  0  0  0  0  0  0  0
   29.0309  -19.8236   -7.0252 C   0  0  0  0  0  0  0  0  0  0  0  0
   27.7413  -20.1623   -7.4172 C   0  0  0  0  0  0  0  0  0  0  0  0
   25.6635  -20.2503  -11.0101 C   0  0  0  0  0  0  0  0  0  0  0  0
   25.7380  -19.0085  -11.0958 O   0  0  0  0  0  0  0  0  0  0  0  0
   21.8345  -17.9890  -15.0975 C   0  0  0  0  0  0  0  0  0  0  0  0
   22.9184  -19.4385  -15.2415 S   0  0  0  0  0  0  0  0  0  0  0  0
   22.9885  -20.3293  -13.6881 C   0  0  0  0  0  0  0  0  0  0  0  0
   23.1802  -19.4672  -12.4978 C   0  0  0  0  0  0  0  0  0  0  0  0
   23.1682  -20.1255  -11.1637 C   0  0  2  0  0  0  0  0  0  0  0  0
   24.3665  -20.8724  -10.9056 N   0  0  0  0  0  0  0  0  0  0  0  0
   21.9832  -20.9913  -10.9682 C   0  0  0  0  0  0  0  0  0  0  0  0
   20.7491  -20.4349  -10.6718 O   0  0  0  0  0  0  0  0  0  0  0  0
   22.1026  -22.2336  -11.0725 O   0  0  0  0  0  0  0  0  0  0  0  0
  2  1  1  6
  3  4  1  0
  3  2  1  0
  4  5  2  0
  6  2  1  0
  6  7  2  0
  8  4  1  0
  9  6  1  0
 10  9  1  0
 10 11  1  1
 12 20  1  0
 12 11  1  0
 13 12  2  0
 14 13  1  0
 14 15  1  0
 15 16  1  0
 15 20  2  0
 16 17  2  0
 17 18  1  0
 19 18  2  0
 20 19  1  0
 21 10  1  0
 22 21  2  0
 23 24  1  0
 24 25  1  0
 25 26  1  0
 27 26  1  6
 27 28  1  0
 27 29  1  0
 28 21  1  0
 29 30  1  0
 31 29  2  0
M  END
$$$$
