DWM.pdb
     RDKit          3D

 31 32  0  0  1  0  0  0  0  0999 V2000
   27.5282  -20.6212  -17.2649 N   0  0  0  0  0  0  0  0  0  0  0  0
   27.5280  -22.0230  -16.9539 C   0  0  1  0  0  0  0  0  0  0  0  0
   28.9030  -22.6351  -17.0598 C   0  0  0  0  0  0  0  0  0  0  0  0
   29.2037  -22.8508  -18.4914 C   0  0  0  0  0  0  0  0  0  0  0  0
   28.3524  -23.4205  -19.2379 O   0  0  0  0  0  0  0  0  0  0  0  0
   26.9186  -22.2182  -15.6206 C   0  0  0  0  0  0  0  0  0  0  0  0
   26.8197  -23.3591  -15.1159 O   0  0  0  0  0  0  0  0  0  0  0  0
   30.3956  -22.4457  -19.0426 O   0  0  0  0  0  0  0  0  0  0  0  0
   26.4423  -21.1058  -14.9078 N   0  0  0  0  0  0  0  0  0  0  0  0
   25.9007  -21.1371  -13.5875 C   0  0  1  0  0  0  0  0  0  0  0  0
   26.4398  -20.0114  -12.7644 C   0  0  0  0  0  0  0  0  0  0  0  0
   26.1096  -20.0957  -11.3257 C   0  0  0  0  0  0  0  0  0  0  0  0
   24.8692  -19.9111  -10.7379 C   0  0  0  0  0  0  0  0  0  0  0  0
   24.9776  -20.1089   -9.4284 N   0  0  0  0  0  0  0  0  0  0  0  0
   26.2435  -20.4147   -9.1438 C   0  0  0  0  0  0  0  0  0  0  0  0
   26.8556  -20.6963   -7.9454 C   0  0  0  0  0  0  0  0  0  0  0  0
   28.2062  -20.9780   -7.9042 C   0  0  0  0  0  0  0  0  0  0  0  0
   28.9726  -20.9871   -9.0339 C   0  0  0  0  0  0  0  0  0  0  0  0
   28.3508  -20.7028  -10.2403 C   0  0  0  0  0  0  0  0  0  0  0  0
   26.9936  -20.4156  -10.3240 C   0  0  0  0  0  0  0  0  0  0  0  0
   24.4279  -21.0104  -13.6715 C   0  0  0  0  0  0  0  0  0  0  0  0
   23.9094  -20.0216  -14.2268 O   0  0  0  0  0  0  0  0  0  0  0  0
   19.9517  -26.0605  -13.9177 C   0  0  0  0  0  0  0  0  0  0  0  0
   19.2747  -24.8780  -12.7177 S   0  0  0  0  0  0  0  0  0  0  0  0
   19.9883  -23.2526  -12.9640 C   0  0  0  0  0  0  0  0  0  0  0  0
   21.4652  -23.2099  -12.8473 C   0  0  0  0  0  0  0  0  0  0  0  0
   22.1482  -21.9450  -13.2300 C   0  0  2  0  0  0  0  0  0  0  0  0
   23.5762  -22.0306  -13.1114 N   0  0  0  0  0  0  0  0  0  0  0  0
   21.6487  -20.7771  -12.4693 C   0  0  0  0  0  0  0  0  0  0  0  0
   22.0316  -20.5822  -11.1517 O   0  0  0  0  0  0  0  0  0  0  0  0
   20.8756  -19.9636  -13.0249 O   0  0  0  0  0  0  0  0  0  0  0  0
  2  1  1  1
  3  4  1  0
  3  2  1  0
  4  5  2  0
  6  2  1  0
  6  7  2  0
  8  4  1  0
  9  6  1  0
 10  9  1  0
 10 11  1  1
 12 20  1  0
 12 11  1  0
 13 12  2  0
 14 13  1  0
 14 15  1  0
 15 16  1  0
 15 20  2  0
 16 17  2  0
 17 18  1  0
 19 18  2  0
 20 19  1  0
 21 10  1  0
 22 21  2  0
 23 24  1  0
 24 25  1  0
 25 26  1  0
 27 26  1  1
 27 28  1  0
 27 29  1  0
 28 21  1  0
 29 30  1  0
 31 29  2  0
M  END
$$$$
