DWM.pdb
     RDKit          3D

 31 32  0  0  1  0  0  0  0  0999 V2000
   28.1812  -20.2329  -18.1396 N   0  0  0  0  0  0  0  0  0  0  0  0
   27.1564  -19.6207  -17.3416 C   0  0  1  0  0  0  0  0  0  0  0  0
   25.8547  -19.4758  -18.0905 C   0  0  0  0  0  0  0  0  0  0  0  0
   26.0210  -18.4131  -19.1050 C   0  0  0  0  0  0  0  0  0  0  0  0
   25.8610  -18.6806  -20.3337 O   0  0  0  0  0  0  0  0  0  0  0  0
   27.0082  -20.3841  -16.0837 C   0  0  0  0  0  0  0  0  0  0  0  0
   26.5869  -21.5626  -16.0887 O   0  0  0  0  0  0  0  0  0  0  0  0
   26.3485  -17.1268  -18.7490 O   0  0  0  0  0  0  0  0  0  0  0  0
   27.3451  -19.7780  -14.8625 N   0  0  0  0  0  0  0  0  0  0  0  0
   27.2076  -20.3768  -13.5740 C   0  0  1  0  0  0  0  0  0  0  0  0
   28.0816  -19.6918  -12.5729 C   0  0  0  0  0  0  0  0  0  0  0  0
   28.3290  -20.4745  -11.3432 C   0  0  0  0  0  0  0  0  0  0  0  0
   29.1401  -21.5890  -11.2076 C   0  0  0  0  0  0  0  0  0  0  0  0
   29.1281  -21.9805   -9.9378 N   0  0  0  0  0  0  0  0  0  0  0  0
   28.3382  -21.1613   -9.2435 C   0  0  0  0  0  0  0  0  0  0  0  0
   27.9972  -21.1517   -7.9117 C   0  0  0  0  0  0  0  0  0  0  0  0
   27.1370  -20.1899   -7.4216 C   0  0  0  0  0  0  0  0  0  0  0  0
   26.6010  -19.2278   -8.2282 C   0  0  0  0  0  0  0  0  0  0  0  0
   26.9481  -19.2413   -9.5706 C   0  0  0  0  0  0  0  0  0  0  0  0
   27.8116  -20.1916  -10.1025 C   0  0  0  0  0  0  0  0  0  0  0  0
   25.7965  -20.2609  -13.1409 C   0  0  0  0  0  0  0  0  0  0  0  0
   25.2636  -19.1404  -13.0166 O   0  0  0  0  0  0  0  0  0  0  0  0
   19.1987  -23.2502  -14.1005 C   0  0  0  0  0  0  0  0  0  0  0  0
   20.4688  -23.9009  -12.9780 S   0  0  0  0  0  0  0  0  0  0  0  0
   21.4433  -22.5648  -12.2874 C   0  0  0  0  0  0  0  0  0  0  0  0
   22.8556  -22.5436  -12.7365 C   0  0  0  0  0  0  0  0  0  0  0  0
   23.6672  -21.3447  -12.3945 C   0  0  2  0  0  0  0  0  0  0  0  0
   25.0221  -21.4442  -12.8580 N   0  0  0  0  0  0  0  0  0  0  0  0
   23.6517  -21.0429  -10.9450 C   0  0  0  0  0  0  0  0  0  0  0  0
   22.6101  -20.3159  -10.3909 O   0  0  0  0  0  0  0  0  0  0  0  0
   24.5883  -21.4497  -10.2200 O   0  0  0  0  0  0  0  0  0  0  0  0
  2  1  1  6
  3  4  1  0
  3  2  1  0
  4  5  2  0
  6  2  1  0
  6  7  2  0
  8  4  1  0
  9  6  1  0
 10  9  1  0
 10 11  1  1
 12 20  1  0
 12 11  1  0
 13 12  2  0
 14 13  1  0
 14 15  1  0
 15 16  1  0
 15 20  2  0
 16 17  2  0
 17 18  1  0
 19 18  2  0
 20 19  1  0
 21 10  1  0
 22 21  2  0
 23 24  1  0
 24 25  1  0
 25 26  1  0
 27 26  1  1
 27 28  1  0
 27 29  1  0
 28 21  1  0
 29 30  1  0
 31 29  2  0
M  END
$$$$
