DWM.pdb
     RDKit          3D

 31 32  0  0  1  0  0  0  0  0999 V2000
   28.3371  -20.2990  -18.0349 N   0  0  0  0  0  0  0  0  0  0  0  0
   27.4078  -21.1307  -17.3232 C   0  0  1  0  0  0  0  0  0  0  0  0
   28.0868  -22.0018  -16.2954 C   0  0  0  0  0  0  0  0  0  0  0  0
   29.0521  -22.8759  -16.9956 C   0  0  0  0  0  0  0  0  0  0  0  0
   29.1310  -22.8461  -18.2603 O   0  0  0  0  0  0  0  0  0  0  0  0
   26.3512  -20.2772  -16.7383 C   0  0  0  0  0  0  0  0  0  0  0  0
   26.6165  -19.1438  -16.2789 O   0  0  0  0  0  0  0  0  0  0  0  0
   29.8771  -23.7310  -16.3049 O   0  0  0  0  0  0  0  0  0  0  0  0
   25.0276  -20.7450  -16.6970 N   0  0  0  0  0  0  0  0  0  0  0  0
   23.9275  -20.0672  -16.0904 C   0  0  1  0  0  0  0  0  0  0  0  0
   22.7379  -20.0669  -16.9962 C   0  0  0  0  0  0  0  0  0  0  0  0
   22.8985  -19.2422  -18.2128 C   0  0  0  0  0  0  0  0  0  0  0  0
   23.7651  -19.4669  -19.2697 C   0  0  0  0  0  0  0  0  0  0  0  0
   23.5820  -18.5232  -20.1870 N   0  0  0  0  0  0  0  0  0  0  0  0
   22.6285  -17.6930  -19.7644 C   0  0  0  0  0  0  0  0  0  0  0  0
   22.0903  -16.5684  -20.3438 C   0  0  0  0  0  0  0  0  0  0  0  0
   21.1016  -15.8574  -19.6942 C   0  0  0  0  0  0  0  0  0  0  0  0
   20.6288  -16.2380  -18.4713 C   0  0  0  0  0  0  0  0  0  0  0  0
   21.1744  -17.3731  -17.8911 C   0  0  0  0  0  0  0  0  0  0  0  0
   22.1702  -18.1169  -18.5131 C   0  0  0  0  0  0  0  0  0  0  0  0
   23.5739  -20.7608  -14.8310 C   0  0  0  0  0  0  0  0  0  0  0  0
   23.5704  -22.0064  -14.7751 O   0  0  0  0  0  0  0  0  0  0  0  0
   24.2016  -21.9877   -7.5584 C   0  0  0  0  0  0  0  0  0  0  0  0
   24.6959  -21.2366   -9.1358 S   0  0  0  0  0  0  0  0  0  0  0  0
   23.3146  -20.3723   -9.8820 C   0  0  0  0  0  0  0  0  0  0  0  0
   23.5777  -19.8667  -11.2501 C   0  0  0  0  0  0  0  0  0  0  0  0
   23.0325  -20.6526  -12.3895 C   0  0  2  0  0  0  0  0  0  0  0  0
   23.2296  -20.0020  -13.6538 N   0  0  0  0  0  0  0  0  0  0  0  0
   21.6014  -20.9892  -12.2141 C   0  0  0  0  0  0  0  0  0  0  0  0
   21.2222  -22.0260  -11.3762 O   0  0  0  0  0  0  0  0  0  0  0  0
   20.7324  -20.3297  -12.8291 O   0  0  0  0  0  0  0  0  0  0  0  0
  2  1  1  1
  3  4  1  0
  3  2  1  0
  4  5  2  0
  6  2  1  0
  6  7  2  0
  8  4  1  0
  9  6  1  0
 10  9  1  0
 10 11  1  6
 12 20  1  0
 12 11  1  0
 13 12  2  0
 14 13  1  0
 14 15  1  0
 15 16  1  0
 15 20  2  0
 16 17  2  0
 17 18  1  0
 19 18  2  0
 20 19  1  0
 21 10  1  0
 22 21  2  0
 23 24  1  0
 24 25  1  0
 25 26  1  0
 27 26  1  1
 27 28  1  0
 27 29  1  0
 28 21  1  0
 29 30  1  0
 31 29  2  0
M  END
$$$$
