DWM.pdb
     RDKit          3D

 31 32  0  0  1  0  0  0  0  0999 V2000
   28.0503  -22.2745  -15.7018 N   0  0  0  0  0  0  0  0  0  0  0  0
   27.2868  -21.1783  -15.1751 C   0  0  1  0  0  0  0  0  0  0  0  0
   26.4556  -20.4962  -16.2335 C   0  0  0  0  0  0  0  0  0  0  0  0
   27.3731  -19.8702  -17.2094 C   0  0  0  0  0  0  0  0  0  0  0  0
   28.3847  -19.2239  -16.8025 O   0  0  0  0  0  0  0  0  0  0  0  0
   26.4754  -21.6622  -14.0373 C   0  0  0  0  0  0  0  0  0  0  0  0
   26.0081  -22.8230  -14.0242 O   0  0  0  0  0  0  0  0  0  0  0  0
   27.1575  -19.9706  -18.5630 O   0  0  0  0  0  0  0  0  0  0  0  0
   26.2240  -20.8059  -12.9529 N   0  0  0  0  0  0  0  0  0  0  0  0
   25.3539  -21.0891  -11.8574 C   0  0  1  0  0  0  0  0  0  0  0  0
   25.7428  -20.2971  -10.6504 C   0  0  0  0  0  0  0  0  0  0  0  0
   26.9728  -20.7713   -9.9807 C   0  0  0  0  0  0  0  0  0  0  0  0
   27.9761  -21.5546  -10.5268 C   0  0  0  0  0  0  0  0  0  0  0  0
   28.9286  -21.7328   -9.6176 N   0  0  0  0  0  0  0  0  0  0  0  0
   28.5805  -21.0943   -8.5004 C   0  0  0  0  0  0  0  0  0  0  0  0
   29.2194  -20.9848   -7.2880 C   0  0  0  0  0  0  0  0  0  0  0  0
   28.6431  -20.2645   -6.2613 C   0  0  0  0  0  0  0  0  0  0  0  0
   27.4361  -19.6439   -6.4088 C   0  0  0  0  0  0  0  0  0  0  0  0
   26.7956  -19.7569   -7.6335 C   0  0  0  0  0  0  0  0  0  0  0  0
   27.3431  -20.4718   -8.6922 C   0  0  0  0  0  0  0  0  0  0  0  0
   23.9691  -20.7327  -12.2418 C   0  0  0  0  0  0  0  0  0  0  0  0
   23.7198  -19.6196  -12.7453 O   0  0  0  0  0  0  0  0  0  0  0  0
   17.3110  -23.4305  -15.3238 C   0  0  0  0  0  0  0  0  0  0  0  0
   18.8551  -23.8318  -14.4571 S   0  0  0  0  0  0  0  0  0  0  0  0
   19.5599  -22.3619  -13.7126 C   0  0  0  0  0  0  0  0  0  0  0  0
   20.9349  -22.5415  -13.1894 C   0  0  0  0  0  0  0  0  0  0  0  0
   21.5660  -21.3819  -12.5038 C   0  0  2  0  0  0  0  0  0  0  0  0
   22.8926  -21.6706  -12.0380 N   0  0  0  0  0  0  0  0  0  0  0  0
   20.7418  -20.8646  -11.3878 C   0  0  0  0  0  0  0  0  0  0  0  0
   19.6096  -20.1076  -11.6441 O   0  0  0  0  0  0  0  0  0  0  0  0
   21.0746  -21.1157  -10.2069 O   0  0  0  0  0  0  0  0  0  0  0  0
  2  1  1  6
  3  4  1  0
  3  2  1  0
  4  5  2  0
  6  2  1  0
  6  7  2  0
  8  4  1  0
  9  6  1  0
 10  9  1  0
 10 11  1  1
 12 20  1  0
 12 11  1  0
 13 12  2  0
 14 13  1  0
 14 15  1  0
 15 16  1  0
 15 20  2  0
 16 17  2  0
 17 18  1  0
 19 18  2  0
 20 19  1  0
 21 10  1  0
 22 21  2  0
 23 24  1  0
 24 25  1  0
 25 26  1  0
 27 26  1  1
 27 28  1  0
 27 29  1  0
 28 21  1  0
 29 30  1  0
 31 29  2  0
M  END
$$$$
