DWM.pdb
     RDKit          3D

 31 32  0  0  1  0  0  0  0  0999 V2000
   27.4287  -20.2311  -18.5454 N   0  0  0  0  0  0  0  0  0  0  0  0
   26.4520  -19.5232  -17.7662 C   0  0  1  0  0  0  0  0  0  0  0  0
   25.2613  -19.0959  -18.5883 C   0  0  0  0  0  0  0  0  0  0  0  0
   25.6100  -17.8417  -19.2895 C   0  0  0  0  0  0  0  0  0  0  0  0
   26.5918  -17.1460  -18.8912 O   0  0  0  0  0  0  0  0  0  0  0  0
   26.0728  -20.3541  -16.6032 C   0  0  0  0  0  0  0  0  0  0  0  0
   25.6693  -21.5293  -16.7524 O   0  0  0  0  0  0  0  0  0  0  0  0
   24.8904  -17.4031  -20.3751 O   0  0  0  0  0  0  0  0  0  0  0  0
   26.1664  -19.8169  -15.3089 N   0  0  0  0  0  0  0  0  0  0  0  0
   25.8141  -20.4942  -14.1028 C   0  0  1  0  0  0  0  0  0  0  0  0
   26.6229  -19.9871  -12.9521 C   0  0  0  0  0  0  0  0  0  0  0  0
   26.4454  -20.7510  -11.6987 C   0  0  0  0  0  0  0  0  0  0  0  0
   26.5260  -22.1241  -11.5351 C   0  0  0  0  0  0  0  0  0  0  0  0
   26.3442  -22.4178  -10.2520 N   0  0  0  0  0  0  0  0  0  0  0  0
   26.1478  -21.2858   -9.5760 C   0  0  0  0  0  0  0  0  0  0  0  0
   25.9094  -21.0628   -8.2406 C   0  0  0  0  0  0  0  0  0  0  0  0
   25.7248  -19.7774   -7.7728 C   0  0  0  0  0  0  0  0  0  0  0  0
   25.7710  -18.6966   -8.6055 C   0  0  0  0  0  0  0  0  0  0  0  0
   26.0119  -18.9264   -9.9516 C   0  0  0  0  0  0  0  0  0  0  0  0
   26.2043  -20.2050  -10.4615 C   0  0  0  0  0  0  0  0  0  0  0  0
   24.3791  -20.2592  -13.8238 C   0  0  0  0  0  0  0  0  0  0  0  0
   23.9046  -19.1075  -13.8813 O   0  0  0  0  0  0  0  0  0  0  0  0
   19.6306  -24.7005  -14.5382 C   0  0  0  0  0  0  0  0  0  0  0  0
   18.9242  -23.7363  -13.1714 S   0  0  0  0  0  0  0  0  0  0  0  0
   19.8690  -22.2372  -12.9040 C   0  0  0  0  0  0  0  0  0  0  0  0
   21.3132  -22.3622  -13.2128 C   0  0  0  0  0  0  0  0  0  0  0  0
   22.1476  -21.1353  -13.1041 C   0  0  2  0  0  0  0  0  0  0  0  0
   23.5138  -21.3612  -13.4822 N   0  0  0  0  0  0  0  0  0  0  0  0
   22.0922  -20.5286  -11.7547 C   0  0  0  0  0  0  0  0  0  0  0  0
   21.1617  -19.5429  -11.4663 O   0  0  0  0  0  0  0  0  0  0  0  0
   22.8937  -20.9123  -10.8721 O   0  0  0  0  0  0  0  0  0  0  0  0
  2  1  1  6
  3  4  1  0
  3  2  1  0
  4  5  2  0
  6  2  1  0
  6  7  2  0
  8  4  1  0
  9  6  1  0
 10  9  1  0
 10 11  1  1
 12 20  1  0
 12 11  1  0
 13 12  2  0
 14 13  1  0
 14 15  1  0
 15 16  1  0
 15 20  2  0
 16 17  2  0
 17 18  1  0
 19 18  2  0
 20 19  1  0
 21 10  1  0
 22 21  2  0
 23 24  1  0
 24 25  1  0
 25 26  1  0
 27 26  1  1
 27 28  1  0
 27 29  1  0
 28 21  1  0
 29 30  1  0
 31 29  2  0
M  END
$$$$
