WKR.pdb
     RDKit          3D

 35 36  0  0  1  0  0  0  0  0999 V2000
   28.6557  -20.6792  -16.4593 N   0  0  0  0  0  0  0  0  0  0  0  0
   27.5001  -20.0123  -15.9277 C   0  0  1  0  0  0  0  0  0  0  0  0
   26.5857  -19.4308  -16.9835 C   0  0  0  0  0  0  0  0  0  0  0  0
   27.1235  -18.2237  -17.6327 C   0  0  0  0  0  0  0  0  0  0  0  0
   27.6130  -18.1357  -18.9181 C   0  0  0  0  0  0  0  0  0  0  0  0
   28.0497  -16.8688  -19.1600 N   0  0  0  0  0  0  0  0  0  0  0  0
   27.8531  -16.1216  -18.0500 C   0  0  0  0  0  0  0  0  0  0  0  0
   28.1242  -14.7921  -17.8019 C   0  0  0  0  0  0  0  0  0  0  0  0
   27.8110  -14.2776  -16.5641 C   0  0  0  0  0  0  0  0  0  0  0  0
   27.2411  -15.0930  -15.6147 C   0  0  0  0  0  0  0  0  0  0  0  0
   26.9698  -16.4100  -15.8527 C   0  0  0  0  0  0  0  0  0  0  0  0
   27.2739  -16.9518  -17.0834 C   0  0  0  0  0  0  0  0  0  0  0  0
   26.7560  -20.8647  -14.9655 C   0  0  0  0  0  0  0  0  0  0  0  0
   26.6197  -22.0919  -15.0513 O   0  0  0  0  0  0  0  0  0  0  0  0
   26.1387  -20.2188  -13.8331 N   0  0  0  0  0  0  0  0  0  0  0  0
   25.4576  -20.9897  -12.7988 C   0  0  1  0  0  0  0  0  0  0  0  0
   25.7162  -20.2015  -11.5067 C   0  0  0  0  0  0  0  0  0  0  0  0
   27.1637  -20.0647  -11.1813 C   0  0  0  0  0  0  0  0  0  0  0  0
   27.6666  -21.3836  -10.6367 C   0  0  0  0  0  0  0  0  0  0  0  0
   29.0973  -21.2989  -10.1340 C   0  0  0  0  0  0  0  0  0  0  0  0
   29.4708  -22.6010   -9.5614 N   0  0  0  0  0  0  0  0  0  0  0  0
   24.0213  -21.0597  -13.1367 C   0  0  0  0  0  0  0  0  0  0  0  0
   23.3576  -20.0024  -13.3679 O   0  0  0  0  0  0  0  0  0  0  0  0
   19.4934  -28.0983  -14.1613 N   0  0  0  0  0  0  0  0  0  0  0  0
   20.3101  -27.4187  -13.2000 C   0  0  0  0  0  0  0  0  0  0  0  0
   20.9377  -28.0907  -12.3065 N   0  0  0  0  0  0  0  0  0  0  0  0
   20.4386  -25.9981  -13.2193 N   0  0  0  0  0  0  0  0  0  0  0  0
   19.2958  -25.1268  -13.3840 C   0  0  0  0  0  0  0  0  0  0  0  0
   19.8368  -23.7030  -13.5150 C   0  0  0  0  0  0  0  0  0  0  0  0
   21.3152  -23.6676  -13.2582 C   0  0  0  0  0  0  0  0  0  0  0  0
   21.8472  -22.2765  -13.4347 C   0  0  2  0  0  0  0  0  0  0  0  0
   23.3052  -22.2706  -13.2247 N   0  0  0  0  0  0  0  0  0  0  0  0
   21.2198  -21.2386  -12.6057 C   0  0  0  0  0  0  0  0  0  0  0  0
   21.4615  -21.0993  -11.3947 O   0  0  0  0  0  0  0  0  0  0  0  0
   20.2909  -20.3235  -13.1394 O   0  0  0  0  0  0  0  0  0  0  0  0
  2  1  1  6
  2  3  1  0
  4  3  1  0
  4  5  2  0
  6  5  1  0
  7  6  1  0
  8  7  2  0
  9  8  1  0
 10  9  2  0
 10 11  1  0
 11 12  2  0
 12  7  1  0
 12  4  1  0
 13  2  1  0
 14 13  2  0
 15 13  1  0
 16 17  1  1
 16 15  1  0
 17 18  1  0
 18 19  1  0
 19 20  1  0
 20 21  1  0
 22 32  1  0
 22 16  1  0
 23 22  2  0
 24 25  1  0
 25 26  2  0
 27 25  1  0
 27 28  1  0
 28 29  1  0
 29 30  1  0
 31 30  1  1
 31 32  1  0
 33 31  1  0
 34 33  2  0
 35 33  1  0
M  END
$$$$
