WKR.pdb
     RDKit          3D

 35 36  0  0  1  0  0  0  0  0999 V2000
   21.3141  -17.2992  -17.2712 N   0  0  0  0  0  0  0  0  0  0  0  0
   22.6179  -17.2482  -16.6710 C   0  0  1  0  0  0  0  0  0  0  0  0
   22.7617  -16.1872  -15.6020 C   0  0  0  0  0  0  0  0  0  0  0  0
   23.5135  -15.0006  -16.0431 C   0  0  0  0  0  0  0  0  0  0  0  0
   22.9842  -13.8617  -16.6106 C   0  0  0  0  0  0  0  0  0  0  0  0
   23.9849  -12.9898  -16.9153 N   0  0  0  0  0  0  0  0  0  0  0  0
   25.1663  -13.5406  -16.5547 C   0  0  0  0  0  0  0  0  0  0  0  0
   26.4527  -13.0525  -16.6529 C   0  0  0  0  0  0  0  0  0  0  0  0
   27.4888  -13.8341  -16.1944 C   0  0  0  0  0  0  0  0  0  0  0  0
   27.2192  -15.0700  -15.6549 C   0  0  0  0  0  0  0  0  0  0  0  0
   25.9486  -15.5602  -15.5543 C   0  0  0  0  0  0  0  0  0  0  0  0
   24.8919  -14.7988  -16.0066 C   0  0  0  0  0  0  0  0  0  0  0  0
   23.0627  -18.5799  -16.1865 C   0  0  0  0  0  0  0  0  0  0  0  0
   22.3314  -19.4382  -15.6760 O   0  0  0  0  0  0  0  0  0  0  0  0
   24.4604  -18.9109  -16.3188 N   0  0  0  0  0  0  0  0  0  0  0  0
   25.0042  -20.1433  -15.7588 C   0  0  1  0  0  0  0  0  0  0  0  0
   26.3457  -20.3287  -16.4826 C   0  0  0  0  0  0  0  0  0  0  0  0
   27.1139  -21.5117  -16.0029 C   0  0  0  0  0  0  0  0  0  0  0  0
   28.4238  -21.5794  -16.7570 C   0  0  0  0  0  0  0  0  0  0  0  0
   29.2328  -22.8170  -16.4098 C   0  0  0  0  0  0  0  0  0  0  0  0
   30.5613  -22.6977  -17.0293 N   0  0  0  0  0  0  0  0  0  0  0  0
   25.1715  -19.9617  -14.3024 C   0  0  0  0  0  0  0  0  0  0  0  0
   25.1973  -18.7992  -13.7930 O   0  0  0  0  0  0  0  0  0  0  0  0
   21.2000  -22.3158  -13.9245 N   0  0  0  0  0  0  0  0  0  0  0  0
   20.4051  -22.1764  -12.7405 C   0  0  0  0  0  0  0  0  0  0  0  0
   19.4651  -23.0145  -12.5005 N   0  0  0  0  0  0  0  0  0  0  0  0
   20.6426  -21.1150  -11.8176 N   0  0  0  0  0  0  0  0  0  0  0  0
   21.7517  -20.1992  -11.9707 C   0  0  0  0  0  0  0  0  0  0  0  0
   22.9850  -20.8928  -11.3919 C   0  0  0  0  0  0  0  0  0  0  0  0
   24.1938  -20.0095  -11.4986 C   0  0  0  0  0  0  0  0  0  0  0  0
   25.3862  -20.8008  -11.9474 C   0  0  2  0  0  0  0  0  0  0  0  0
   25.3101  -21.0354  -13.3997 N   0  0  0  0  0  0  0  0  0  0  0  0
   25.6138  -22.0725  -11.2481 C   0  0  0  0  0  0  0  0  0  0  0  0
   25.8939  -22.1414  -10.0393 O   0  0  0  0  0  0  0  0  0  0  0  0
   25.5280  -23.3112  -11.9138 O   0  0  0  0  0  0  0  0  0  0  0  0
  2  1  1  1
  2  3  1  0
  4  3  1  0
  4  5  2  0
  6  5  1  0
  7  6  1  0
  8  7  2  0
  9  8  1  0
 10  9  2  0
 10 11  1  0
 11 12  2  0
 12  7  1  0
 12  4  1  0
 13  2  1  0
 14 13  2  0
 15 13  1  0
 16 17  1  6
 16 15  1  0
 17 18  1  0
 18 19  1  0
 19 20  1  0
 20 21  1  0
 22 32  1  0
 22 16  1  0
 23 22  2  0
 24 25  1  0
 25 26  2  0
 27 25  1  0
 27 28  1  0
 28 29  1  0
 29 30  1  0
 31 30  1  1
 31 32  1  0
 33 31  1  0
 34 33  2  0
 35 33  1  0
M  END
$$$$
