WKR.pdb
     RDKit          3D

 35 36  0  0  1  0  0  0  0  0999 V2000
   24.3897  -18.8229  -25.4350 N   0  0  0  0  0  0  0  0  0  0  0  0
   24.6005  -19.2552  -24.0817 C   0  0  1  0  0  0  0  0  0  0  0  0
   23.4645  -18.9130  -23.1429 C   0  0  0  0  0  0  0  0  0  0  0  0
   23.1352  -17.4783  -23.1103 C   0  0  0  0  0  0  0  0  0  0  0  0
   22.1910  -16.8383  -23.8839 C   0  0  0  0  0  0  0  0  0  0  0  0
   22.1859  -15.5068  -23.5985 N   0  0  0  0  0  0  0  0  0  0  0  0
   23.1147  -15.2626  -22.6462 C   0  0  0  0  0  0  0  0  0  0  0  0
   23.4806  -14.0846  -22.0288 C   0  0  0  0  0  0  0  0  0  0  0  0
   24.4696  -14.1239  -21.0722 C   0  0  0  0  0  0  0  0  0  0  0  0
   25.0627  -15.3242  -20.7583 C   0  0  0  0  0  0  0  0  0  0  0  0
   24.7062  -16.4944  -21.3651 C   0  0  0  0  0  0  0  0  0  0  0  0
   23.7191  -16.4841  -22.3275 C   0  0  0  0  0  0  0  0  0  0  0  0
   24.9627  -20.6935  -24.0044 C   0  0  0  0  0  0  0  0  0  0  0  0
   24.5914  -21.5701  -24.7955 O   0  0  0  0  0  0  0  0  0  0  0  0
   25.8191  -21.1137  -22.9224 N   0  0  0  0  0  0  0  0  0  0  0  0
   26.2882  -22.4911  -22.8176 C   0  0  1  0  0  0  0  0  0  0  0  0
   27.7492  -22.3602  -22.3637 C   0  0  0  0  0  0  0  0  0  0  0  0
   28.4393  -23.6726  -22.2176 C   0  0  0  0  0  0  0  0  0  0  0  0
   29.8669  -23.4256  -21.7820 C   0  0  0  0  0  0  0  0  0  0  0  0
   30.6921  -24.7000  -21.7401 C   0  0  0  0  0  0  0  0  0  0  0  0
   32.0962  -24.3413  -21.4895 N   0  0  0  0  0  0  0  0  0  0  0  0
   25.4520  -23.1960  -21.8247 C   0  0  0  0  0  0  0  0  0  0  0  0
   25.6335  -24.4290  -21.5828 O   0  0  0  0  0  0  0  0  0  0  0  0
   25.3759  -27.0368  -16.8331 N   0  0  0  0  0  0  0  0  0  0  0  0
   24.0677  -27.6211  -16.8148 C   0  0  0  0  0  0  0  0  0  0  0  0
   23.6017  -28.1092  -15.7247 N   0  0  0  0  0  0  0  0  0  0  0  0
   23.2689  -27.6697  -17.9957 N   0  0  0  0  0  0  0  0  0  0  0  0
   23.6858  -27.0418  -19.2302 C   0  0  0  0  0  0  0  0  0  0  0  0
   23.4994  -25.5354  -19.0486 C   0  0  0  0  0  0  0  0  0  0  0  0
   23.8573  -24.7975  -20.3057 C   0  0  0  0  0  0  0  0  0  0  0  0
   23.5883  -23.3303  -20.1499 C   0  0  2  0  0  0  0  0  0  0  0  0
   24.4222  -22.5681  -21.0952 N   0  0  0  0  0  0  0  0  0  0  0  0
   23.7487  -22.7881  -18.7940 C   0  0  0  0  0  0  0  0  0  0  0  0
   23.0025  -23.0936  -17.8484 O   0  0  0  0  0  0  0  0  0  0  0  0
   24.7729  -21.8741  -18.4766 O   0  0  0  0  0  0  0  0  0  0  0  0
  2  1  1  6
  2  3  1  0
  4  3  1  0
  4  5  2  0
  6  5  1  0
  7  6  1  0
  8  7  2  0
  9  8  1  0
 10  9  2  0
 10 11  1  0
 11 12  2  0
 12  7  1  0
 12  4  1  0
 13  2  1  0
 14 13  2  0
 15 13  1  0
 16 17  1  1
 16 15  1  0
 17 18  1  0
 18 19  1  0
 19 20  1  0
 20 21  1  0
 22 32  1  0
 22 16  1  0
 23 22  2  0
 24 25  1  0
 25 26  2  0
 27 25  1  0
 27 28  1  0
 28 29  1  0
 29 30  1  0
 31 30  1  1
 31 32  1  0
 33 31  1  0
 34 33  2  0
 35 33  1  0
M  END
$$$$
