WKR.pdb
     RDKit          3D

 35 36  0  0  1  0  0  0  0  0999 V2000
   24.9501  -19.2568   -9.1345 N   0  0  0  0  0  0  0  0  0  0  0  0
   25.9739  -20.0830   -9.7108 C   0  0  1  0  0  0  0  0  0  0  0  0
   26.4105  -21.2289   -8.8245 C   0  0  0  0  0  0  0  0  0  0  0  0
   26.7519  -20.8190   -7.4522 C   0  0  0  0  0  0  0  0  0  0  0  0
   25.9375  -20.9128   -6.3443 C   0  0  0  0  0  0  0  0  0  0  0  0
   26.5809  -20.4103   -5.2545 N   0  0  0  0  0  0  0  0  0  0  0  0
   27.8091  -19.9874   -5.6313 C   0  0  0  0  0  0  0  0  0  0  0  0
   28.8265  -19.4139   -4.8973 C   0  0  0  0  0  0  0  0  0  0  0  0
   29.9953  -19.0803   -5.5433 C   0  0  0  0  0  0  0  0  0  0  0  0
   30.1193  -19.3247   -6.8909 C   0  0  0  0  0  0  0  0  0  0  0  0
   29.1168  -19.8920   -7.6243 C   0  0  0  0  0  0  0  0  0  0  0  0
   27.9349  -20.2352   -7.0030 C   0  0  0  0  0  0  0  0  0  0  0  0
   25.6143  -20.5493  -11.0743 C   0  0  0  0  0  0  0  0  0  0  0  0
   24.5096  -20.9939  -11.4120 O   0  0  0  0  0  0  0  0  0  0  0  0
   26.6289  -20.4810  -12.0973 N   0  0  0  0  0  0  0  0  0  0  0  0
   26.3384  -20.8476  -13.4791 C   0  0  1  0  0  0  0  0  0  0  0  0
   27.3358  -20.0246  -14.3071 C   0  0  0  0  0  0  0  0  0  0  0  0
   26.9341  -18.5984  -14.4635 C   0  0  0  0  0  0  0  0  0  0  0  0
   28.0033  -17.8758  -15.2534 C   0  0  0  0  0  0  0  0  0  0  0  0
   27.7121  -16.3931  -15.4071 C   0  0  0  0  0  0  0  0  0  0  0  0
   28.7636  -15.7931  -16.2422 N   0  0  0  0  0  0  0  0  0  0  0  0
   26.5468  -22.3021  -13.6311 C   0  0  0  0  0  0  0  0  0  0  0  0
   26.9287  -23.0083  -12.6476 O   0  0  0  0  0  0  0  0  0  0  0  0
   21.4587  -27.3303  -14.7722 N   0  0  0  0  0  0  0  0  0  0  0  0
   21.1841  -26.9674  -13.4136 C   0  0  0  0  0  0  0  0  0  0  0  0
   20.7925  -27.8604  -12.5810 N   0  0  0  0  0  0  0  0  0  0  0  0
   21.3398  -25.6214  -12.9674 N   0  0  0  0  0  0  0  0  0  0  0  0
   21.7824  -24.5664  -13.8523 C   0  0  0  0  0  0  0  0  0  0  0  0
   23.1722  -24.9594  -14.3535 C   0  0  0  0  0  0  0  0  0  0  0  0
   24.1056  -23.7846  -14.3157 C   0  0  0  0  0  0  0  0  0  0  0  0
   25.4314  -24.1458  -14.9166 C   0  0  2  0  0  0  0  0  0  0  0  0
   26.3423  -22.9904  -14.8440 N   0  0  0  0  0  0  0  0  0  0  0  0
   25.3941  -24.6660  -16.2899 C   0  0  0  0  0  0  0  0  0  0  0  0
   25.1363  -23.9568  -17.2773 O   0  0  0  0  0  0  0  0  0  0  0  0
   25.6513  -26.0211  -16.5775 O   0  0  0  0  0  0  0  0  0  0  0  0
  2  1  1  1
  2  3  1  0
  4  3  1  0
  4  5  2  0
  6  5  1  0
  7  6  1  0
  8  7  2  0
  9  8  1  0
 10  9  2  0
 10 11  1  0
 11 12  2  0
 12  7  1  0
 12  4  1  0
 13  2  1  0
 14 13  2  0
 15 13  1  0
 16 17  1  6
 16 15  1  0
 17 18  1  0
 18 19  1  0
 19 20  1  0
 20 21  1  0
 22 32  1  0
 22 16  1  0
 23 22  2  0
 24 25  1  0
 25 26  2  0
 27 25  1  0
 27 28  1  0
 28 29  1  0
 29 30  1  0
 31 30  1  6
 31 32  1  0
 33 31  1  0
 34 33  2  0
 35 33  1  0
M  END
$$$$
