WKR.pdb
     RDKit          3D

 35 36  0  0  1  0  0  0  0  0999 V2000
   25.2236  -18.8740   -9.0438 N   0  0  0  0  0  0  0  0  0  0  0  0
   26.0750  -19.8424   -9.6763 C   0  0  1  0  0  0  0  0  0  0  0  0
   26.3582  -21.0610   -8.8255 C   0  0  0  0  0  0  0  0  0  0  0  0
   26.5795  -20.7514   -7.4032 C   0  0  0  0  0  0  0  0  0  0  0  0
   25.6882  -20.9595   -6.3727 C   0  0  0  0  0  0  0  0  0  0  0  0
   26.2283  -20.5253   -5.2005 N   0  0  0  0  0  0  0  0  0  0  0  0
   27.4644  -20.0346   -5.4465 C   0  0  0  0  0  0  0  0  0  0  0  0
   28.4011  -19.4893   -4.5934 C   0  0  0  0  0  0  0  0  0  0  0  0
   29.6017  -19.0680   -5.1186 C   0  0  0  0  0  0  0  0  0  0  0  0
   29.8359  -19.1998   -6.4673 C   0  0  0  0  0  0  0  0  0  0  0  0
   28.9137  -19.7384   -7.3182 C   0  0  0  0  0  0  0  0  0  0  0  0
   27.7023  -20.1678   -6.8193 C   0  0  0  0  0  0  0  0  0  0  0  0
   25.5872  -20.2176  -11.0281 C   0  0  0  0  0  0  0  0  0  0  0  0
   24.4215  -20.5233  -11.3104 O   0  0  0  0  0  0  0  0  0  0  0  0
   26.5427  -20.2280  -12.1085 N   0  0  0  0  0  0  0  0  0  0  0  0
   26.1510  -20.5995  -13.4638 C   0  0  1  0  0  0  0  0  0  0  0  0
   27.0583  -19.7511  -14.3664 C   0  0  0  0  0  0  0  0  0  0  0  0
   27.7712  -18.6684  -13.6321 C   0  0  0  0  0  0  0  0  0  0  0  0
   28.7072  -17.9653  -14.5907 C   0  0  0  0  0  0  0  0  0  0  0  0
   28.0345  -17.6073  -15.9046 C   0  0  0  0  0  0  0  0  0  0  0  0
   29.0017  -16.8851  -16.7448 N   0  0  0  0  0  0  0  0  0  0  0  0
   26.3816  -22.0482  -13.6371 C   0  0  0  0  0  0  0  0  0  0  0  0
   26.6261  -22.7899  -12.6361 O   0  0  0  0  0  0  0  0  0  0  0  0
   21.8777  -27.7598  -14.5782 N   0  0  0  0  0  0  0  0  0  0  0  0
   21.7053  -27.1688  -13.2844 C   0  0  0  0  0  0  0  0  0  0  0  0
   21.4628  -27.9138  -12.2695 N   0  0  0  0  0  0  0  0  0  0  0  0
   21.7993  -25.7569  -13.1039 N   0  0  0  0  0  0  0  0  0  0  0  0
   21.9725  -24.8510  -14.2181 C   0  0  0  0  0  0  0  0  0  0  0  0
   23.4046  -25.0330  -14.7213 C   0  0  0  0  0  0  0  0  0  0  0  0
   24.2096  -23.7849  -14.5044 C   0  0  0  0  0  0  0  0  0  0  0  0
   25.5849  -23.9382  -15.0825 C   0  0  2  0  0  0  0  0  0  0  0  0
   26.3476  -22.6926  -14.8902 N   0  0  0  0  0  0  0  0  0  0  0  0
   25.6474  -24.3487  -16.4917 C   0  0  0  0  0  0  0  0  0  0  0  0
   25.7554  -25.5341  -16.8489 O   0  0  0  0  0  0  0  0  0  0  0  0
   25.5888  -23.4106  -17.5413 O   0  0  0  0  0  0  0  0  0  0  0  0
  2  1  1  1
  2  3  1  0
  4  3  1  0
  4  5  2  0
  6  5  1  0
  7  6  1  0
  8  7  2  0
  9  8  1  0
 10  9  2  0
 10 11  1  0
 11 12  2  0
 12  7  1  0
 12  4  1  0
 13  2  1  0
 14 13  2  0
 15 13  1  0
 16 17  1  6
 16 15  1  0
 17 18  1  0
 18 19  1  0
 19 20  1  0
 20 21  1  0
 22 32  1  0
 22 16  1  0
 23 22  2  0
 24 25  1  0
 25 26  2  0
 27 25  1  0
 27 28  1  0
 28 29  1  0
 29 30  1  0
 31 30  1  6
 31 32  1  0
 33 31  1  0
 34 33  2  0
 35 33  1  0
M  END
$$$$
