WKR.pdb
     RDKit          3D

 35 36  0  0  1  0  0  0  0  0999 V2000
   26.3923  -22.8954  -11.6858 N   0  0  0  0  0  0  0  0  0  0  0  0
   25.7812  -21.7495  -11.0726 C   0  0  1  0  0  0  0  0  0  0  0  0
   26.5904  -20.4777  -11.2028 C   0  0  0  0  0  0  0  0  0  0  0  0
   27.7775  -20.4397  -10.3327 C   0  0  0  0  0  0  0  0  0  0  0  0
   29.0580  -20.8132  -10.6798 C   0  0  0  0  0  0  0  0  0  0  0  0
   29.8871  -20.6688   -9.6093 N   0  0  0  0  0  0  0  0  0  0  0  0
   29.1684  -20.2044   -8.5620 C   0  0  0  0  0  0  0  0  0  0  0  0
   29.5534  -19.8963   -7.2738 C   0  0  0  0  0  0  0  0  0  0  0  0
   28.6008  -19.4276   -6.3977 C   0  0  0  0  0  0  0  0  0  0  0  0
   27.3017  -19.2791   -6.8236 C   0  0  0  0  0  0  0  0  0  0  0  0
   26.9127  -19.5820   -8.0970 C   0  0  0  0  0  0  0  0  0  0  0  0
   27.8460  -20.0543   -8.9952 C   0  0  0  0  0  0  0  0  0  0  0  0
   24.3786  -21.5565  -11.5215 C   0  0  0  0  0  0  0  0  0  0  0  0
   24.0022  -21.5153  -12.7000 O   0  0  0  0  0  0  0  0  0  0  0  0
   23.3633  -21.4053  -10.5082 N   0  0  0  0  0  0  0  0  0  0  0  0
   21.9446  -21.4860  -10.8383 C   0  0  1  0  0  0  0  0  0  0  0  0
   21.2937  -22.0642   -9.5735 C   0  0  0  0  0  0  0  0  0  0  0  0
   19.8577  -22.4151   -9.7592 C   0  0  0  0  0  0  0  0  0  0  0  0
   19.3510  -23.0754   -8.4957 C   0  0  0  0  0  0  0  0  0  0  0  0
   17.9248  -23.5795   -8.6334 C   0  0  0  0  0  0  0  0  0  0  0  0
   17.5174  -24.1874   -7.3577 N   0  0  0  0  0  0  0  0  0  0  0  0
   21.4585  -20.1262  -11.1493 C   0  0  0  0  0  0  0  0  0  0  0  0
   22.1722  -19.1082  -10.8925 O   0  0  0  0  0  0  0  0  0  0  0  0
   23.8350  -18.0067  -17.9038 N   0  0  0  0  0  0  0  0  0  0  0  0
   24.1889  -18.7294  -16.7182 C   0  0  0  0  0  0  0  0  0  0  0  0
   25.4121  -18.7696  -16.3364 N   0  0  0  0  0  0  0  0  0  0  0  0
   23.1979  -19.4094  -15.9498 N   0  0  0  0  0  0  0  0  0  0  0  0
   21.8176  -19.4876  -16.3750 C   0  0  0  0  0  0  0  0  0  0  0  0
   20.9755  -18.8419  -15.2746 C   0  0  0  0  0  0  0  0  0  0  0  0
   21.0290  -19.6553  -14.0143 C   0  0  0  0  0  0  0  0  0  0  0  0
   20.0945  -19.0932  -12.9847 C   0  0  2  0  0  0  0  0  0  0  0  0
   20.2034  -19.8689  -11.7371 N   0  0  0  0  0  0  0  0  0  0  0  0
   18.6850  -18.9883  -13.3853 C   0  0  0  0  0  0  0  0  0  0  0  0
   18.0857  -19.8868  -14.0001 O   0  0  0  0  0  0  0  0  0  0  0  0
   17.9137  -17.8459  -13.0939 O   0  0  0  0  0  0  0  0  0  0  0  0
  2  1  1  6
  2  3  1  0
  4  3  1  0
  4  5  2  0
  6  5  1  0
  7  6  1  0
  8  7  2  0
  9  8  1  0
 10  9  2  0
 10 11  1  0
 11 12  2  0
 12  7  1  0
 12  4  1  0
 13  2  1  0
 14 13  2  0
 15 13  1  0
 16 17  1  1
 16 15  1  0
 17 18  1  0
 18 19  1  0
 19 20  1  0
 20 21  1  0
 22 32  1  0
 22 16  1  0
 23 22  2  0
 24 25  1  0
 25 26  2  0
 27 25  1  0
 27 28  1  0
 28 29  1  0
 29 30  1  0
 31 30  1  6
 31 32  1  0
 33 31  1  0
 34 33  2  0
 35 33  1  0
M  END
$$$$
