WKR.pdb
     RDKit          3D

 35 36  0  0  1  0  0  0  0  0999 V2000
   22.5519  -18.2063  -17.8797 N   0  0  0  0  0  0  0  0  0  0  0  0
   23.1148  -17.8044  -16.6209 C   0  0  1  0  0  0  0  0  0  0  0  0
   22.0854  -17.5285  -15.5470 C   0  0  0  0  0  0  0  0  0  0  0  0
   21.2038  -16.3891  -15.8510 C   0  0  0  0  0  0  0  0  0  0  0  0
   19.8278  -16.3764  -15.7728 C   0  0  0  0  0  0  0  0  0  0  0  0
   19.3550  -15.1584  -16.1565 N   0  0  0  0  0  0  0  0  0  0  0  0
   20.4028  -14.3690  -16.4856 C   0  0  0  0  0  0  0  0  0  0  0  0
   20.4402  -13.0620  -16.9248 C   0  0  0  0  0  0  0  0  0  0  0  0
   21.6655  -12.4911  -17.1846 C   0  0  0  0  0  0  0  0  0  0  0  0
   22.8109  -13.2300  -17.0018 C   0  0  0  0  0  0  0  0  0  0  0  0
   22.7820  -14.5243  -16.5675 C   0  0  0  0  0  0  0  0  0  0  0  0
   21.5683  -15.1214  -16.3005 C   0  0  0  0  0  0  0  0  0  0  0  0
   24.1608  -18.7477  -16.1497 C   0  0  0  0  0  0  0  0  0  0  0  0
   24.0239  -19.9728  -16.0380 O   0  0  0  0  0  0  0  0  0  0  0  0
   25.4468  -18.2012  -15.7918 N   0  0  0  0  0  0  0  0  0  0  0  0
   26.5444  -19.0621  -15.3646 C   0  0  1  0  0  0  0  0  0  0  0  0
   27.8060  -18.3432  -15.8636 C   0  0  0  0  0  0  0  0  0  0  0  0
   27.9622  -18.3896  -17.3446 C   0  0  0  0  0  0  0  0  0  0  0  0
   29.2871  -17.7593  -17.7139 C   0  0  0  0  0  0  0  0  0  0  0  0
   29.4675  -17.6199  -19.2156 C   0  0  0  0  0  0  0  0  0  0  0  0
   30.7302  -16.9109  -19.4721 N   0  0  0  0  0  0  0  0  0  0  0  0
   26.5059  -19.1734  -13.8921 C   0  0  0  0  0  0  0  0  0  0  0  0
   26.2654  -18.1564  -13.1713 O   0  0  0  0  0  0  0  0  0  0  0  0
   24.9179  -21.2887   -6.1620 N   0  0  0  0  0  0  0  0  0  0  0  0
   23.9221  -21.7354   -7.0903 C   0  0  0  0  0  0  0  0  0  0  0  0
   22.6916  -21.7817   -6.7333 N   0  0  0  0  0  0  0  0  0  0  0  0
   24.2774  -22.1321   -8.4137 N   0  0  0  0  0  0  0  0  0  0  0  0
   25.5748  -21.8364   -8.9807 C   0  0  0  0  0  0  0  0  0  0  0  0
   25.4625  -20.4725   -9.6621 C   0  0  0  0  0  0  0  0  0  0  0  0
   25.4351  -20.6221  -11.1554 C   0  0  0  0  0  0  0  0  0  0  0  0
   26.8042  -20.4127  -11.7308 C   0  0  2  0  0  0  0  0  0  0  0  0
   26.7269  -20.3822  -13.2015 N   0  0  0  0  0  0  0  0  0  0  0  0
   27.8334  -21.3707  -11.3053 C   0  0  0  0  0  0  0  0  0  0  0  0
   28.0577  -22.4363  -11.9041 O   0  0  0  0  0  0  0  0  0  0  0  0
   28.6419  -21.1381  -10.1750 O   0  0  0  0  0  0  0  0  0  0  0  0
  2  1  1  6
  2  3  1  0
  4  3  1  0
  4  5  2  0
  6  5  1  0
  7  6  1  0
  8  7  2  0
  9  8  1  0
 10  9  2  0
 10 11  1  0
 11 12  2  0
 12  7  1  0
 12  4  1  0
 13  2  1  0
 14 13  2  0
 15 13  1  0
 16 17  1  1
 16 15  1  0
 17 18  1  0
 18 19  1  0
 19 20  1  0
 20 21  1  0
 22 32  1  0
 22 16  1  0
 23 22  2  0
 24 25  1  0
 25 26  2  0
 27 25  1  0
 27 28  1  0
 28 29  1  0
 29 30  1  0
 31 30  1  1
 31 32  1  0
 33 31  1  0
 34 33  2  0
 35 33  1  0
M  END
$$$$
