WKR.pdb
     RDKit          3D

 35 36  0  0  1  0  0  0  0  0999 V2000
   24.5498  -17.7884  -17.4549 N   0  0  0  0  0  0  0  0  0  0  0  0
   24.7907  -18.5618  -16.2689 C   0  0  1  0  0  0  0  0  0  0  0  0
   25.1167  -17.7299  -15.0480 C   0  0  0  0  0  0  0  0  0  0  0  0
   26.2220  -16.7799  -15.2570 C   0  0  0  0  0  0  0  0  0  0  0  0
   26.2562  -15.4631  -14.8515 C   0  0  0  0  0  0  0  0  0  0  0  0
   27.4268  -14.8892  -15.2447 N   0  0  0  0  0  0  0  0  0  0  0  0
   28.1639  -15.8123  -15.9035 C   0  0  0  0  0  0  0  0  0  0  0  0
   29.4120  -15.7187  -16.4832 C   0  0  0  0  0  0  0  0  0  0  0  0
   29.9384  -16.8347  -17.0934 C   0  0  0  0  0  0  0  0  0  0  0  0
   29.2148  -18.0039  -17.1098 C   0  0  0  0  0  0  0  0  0  0  0  0
   27.9787  -18.1045  -16.5382 C   0  0  0  0  0  0  0  0  0  0  0  0
   27.4270  -17.0019  -15.9211 C   0  0  0  0  0  0  0  0  0  0  0  0
   23.6949  -19.5274  -15.9990 C   0  0  0  0  0  0  0  0  0  0  0  0
   22.4901  -19.3159  -16.1880 O   0  0  0  0  0  0  0  0  0  0  0  0
   24.0540  -20.8222  -15.4745 N   0  0  0  0  0  0  0  0  0  0  0  0
   23.0414  -21.8340  -15.1932 C   0  0  1  0  0  0  0  0  0  0  0  0
   23.8353  -23.1434  -15.0799 C   0  0  0  0  0  0  0  0  0  0  0  0
   24.3731  -23.6195  -16.3852 C   0  0  0  0  0  0  0  0  0  0  0  0
   25.3090  -24.7809  -16.1311 C   0  0  0  0  0  0  0  0  0  0  0  0
   26.0792  -25.1912  -17.3742 C   0  0  0  0  0  0  0  0  0  0  0  0
   27.0268  -26.2549  -17.0086 N   0  0  0  0  0  0  0  0  0  0  0  0
   22.3618  -21.4775  -13.9310 C   0  0  0  0  0  0  0  0  0  0  0  0
   22.9351  -20.7387  -13.0724 O   0  0  0  0  0  0  0  0  0  0  0  0
   19.8882  -19.9640  -16.9051 N   0  0  0  0  0  0  0  0  0  0  0  0
   18.5484  -20.2044  -16.4578 C   0  0  0  0  0  0  0  0  0  0  0  0
   17.7826  -20.9854  -17.1266 N   0  0  0  0  0  0  0  0  0  0  0  0
   18.0479  -19.5865  -15.2735 N   0  0  0  0  0  0  0  0  0  0  0  0
   18.9140  -18.8939  -14.3449 C   0  0  0  0  0  0  0  0  0  0  0  0
   18.8187  -19.6338  -13.0106 C   0  0  0  0  0  0  0  0  0  0  0  0
   20.1853  -19.9497  -12.4763 C   0  0  0  0  0  0  0  0  0  0  0  0
   20.3853  -21.4333  -12.3857 C   0  0  2  0  0  0  0  0  0  0  0  0
   21.0650  -21.9192  -13.5990 N   0  0  0  0  0  0  0  0  0  0  0  0
   19.1766  -22.2307  -12.1381 C   0  0  0  0  0  0  0  0  0  0  0  0
   18.6041  -22.8880  -13.0239 O   0  0  0  0  0  0  0  0  0  0  0  0
   18.5819  -22.3006  -10.8628 O   0  0  0  0  0  0  0  0  0  0  0  0
  2  1  1  6
  2  3  1  0
  4  3  1  0
  4  5  2  0
  6  5  1  0
  7  6  1  0
  8  7  2  0
  9  8  1  0
 10  9  2  0
 10 11  1  0
 11 12  2  0
 12  7  1  0
 12  4  1  0
 13  2  1  0
 14 13  2  0
 15 13  1  0
 16 17  1  1
 16 15  1  0
 17 18  1  0
 18 19  1  0
 19 20  1  0
 20 21  1  0
 22 32  1  0
 22 16  1  0
 23 22  2  0
 24 25  1  0
 25 26  2  0
 27 25  1  0
 27 28  1  0
 28 29  1  0
 29 30  1  0
 31 30  1  6
 31 32  1  0
 33 31  1  0
 34 33  2  0
 35 33  1  0
M  END
$$$$
