APV.pdb
     RDKit          3D

 20 20  0  0  1  0  0  0  0  0999 V2000
   24.6412  -19.3133  -12.8426 C   0  0  0  0  0  0  0  0  0  0  0  0
   25.0239  -20.7848  -13.0434 C   0  0  2  0  0  0  0  0  0  0  0  0
   23.8518  -21.5460  -13.3856 N   0  0  0  0  0  0  0  0  0  0  0  0
   25.7016  -21.2153  -11.8098 C   0  0  0  0  0  0  0  0  0  0  0  0
   24.9613  -21.7139  -10.9096 O   0  0  0  0  0  0  0  0  0  0  0  0
   27.0788  -21.1133  -11.5711 N   0  0  0  0  0  0  0  0  0  0  0  0
   28.0501  -20.5135  -12.4476 C   0  0  0  0  0  0  0  0  0  0  0  0
   29.2938  -20.4174  -11.6095 C   0  0  0  0  0  0  0  0  0  0  0  0
   29.2262  -21.6831  -10.7853 C   0  0  0  0  0  0  0  0  0  0  0  0
   27.7458  -21.6092  -10.3711 C   0  0  1  0  0  0  0  0  0  0  0  0
   27.6691  -20.6630   -9.2587 C   0  0  0  0  0  0  0  0  0  0  0  0
   27.3844  -19.4440   -9.4495 O   0  0  0  0  0  0  0  0  0  0  0  0
   26.9843  -19.7802   -4.4403 C   0  0  0  0  0  0  0  0  0  0  0  0
   27.0456  -20.7975   -5.5616 C   0  0  1  0  0  0  0  0  0  0  0  0
   25.6235  -21.2496   -5.8325 C   0  0  0  0  0  0  0  0  0  0  0  0
   27.5955  -20.1834   -6.7731 C   0  0  2  0  0  0  0  0  0  0  0  0
   27.8918  -20.9732   -7.8969 N   0  0  0  0  0  0  0  0  0  0  0  0
   28.7960  -19.3929   -6.4044 C   0  0  0  0  0  0  0  0  0  0  0  0
   29.9265  -19.9117   -6.5630 O   0  0  0  0  0  0  0  0  0  0  0  0
   28.7667  -18.1121   -5.8930 O   0  0  0  0  0  0  0  0  0  0  0  0
  2  4  1  0
  2  1  1  1
  3  2  1  0
  4  5  2  0
  6  4  1  0
  6 10  1  0
  7  6  1  0
  7  8  1  0
  8  9  1  0
 10 11  1  1
 10  9  1  0
 11 12  2  0
 11 17  1  0
 14 13  1  1
 14 15  1  0
 14 16  1  0
 16 18  1  0
 16 17  1  6
 18 19  2  0
 18 20  1  0
M  END
$$$$
