APV.pdb
     RDKit          3D

 20 20  0  0  1  0  0  0  0  0999 V2000
   28.7613  -19.5404  -12.3757 C   0  0  0  0  0  0  0  0  0  0  0  0
   28.5683  -21.0543  -12.2244 C   0  0  2  0  0  0  0  0  0  0  0  0
   27.3057  -21.4395  -12.7967 N   0  0  0  0  0  0  0  0  0  0  0  0
   28.7146  -21.3559  -10.7911 C   0  0  0  0  0  0  0  0  0  0  0  0
   27.6433  -21.3892  -10.1143 O   0  0  0  0  0  0  0  0  0  0  0  0
   29.9314  -21.6034  -10.1414 N   0  0  0  0  0  0  0  0  0  0  0  0
   31.2421  -21.5060  -10.7279 C   0  0  0  0  0  0  0  0  0  0  0  0
   32.1784  -21.5938   -9.5557 C   0  0  0  0  0  0  0  0  0  0  0  0
   31.4748  -22.5826   -8.6540 C   0  0  0  0  0  0  0  0  0  0  0  0
   30.0520  -22.0029   -8.7426 C   0  0  1  0  0  0  0  0  0  0  0  0
   30.0077  -20.8609   -7.8303 C   0  0  0  0  0  0  0  0  0  0  0  0
   30.4803  -19.7340   -8.1623 O   0  0  0  0  0  0  0  0  0  0  0  0
   26.8543  -19.4857   -6.3710 C   0  0  0  0  0  0  0  0  0  0  0  0
   27.8277  -19.5251   -5.2104 C   0  0  1  0  0  0  0  0  0  0  0  0
   27.4073  -20.6739   -4.3140 C   0  0  0  0  0  0  0  0  0  0  0  0
   29.1880  -19.7669   -5.6983 C   0  0  2  0  0  0  0  0  0  0  0  0
   29.4590  -20.8691   -6.5267 N   0  0  0  0  0  0  0  0  0  0  0  0
   30.1134  -19.7911   -4.5387 C   0  0  0  0  0  0  0  0  0  0  0  0
   30.6700  -20.8741   -4.2393 O   0  0  0  0  0  0  0  0  0  0  0  0
   30.4151  -18.6994   -3.7511 O   0  0  0  0  0  0  0  0  0  0  0  0
  2  4  1  0
  2  1  1  1
  3  2  1  0
  4  5  2  0
  6  4  1  0
  6 10  1  0
  7  6  1  0
  7  8  1  0
  8  9  1  0
 10 11  1  1
 10  9  1  0
 11 12  2  0
 11 17  1  0
 14 13  1  6
 14 15  1  0
 14 16  1  0
 16 18  1  0
 16 17  1  1
 18 19  2  0
 18 20  1  0
M  END
$$$$
