APV.pdb
     RDKit          3D

 20 20  0  0  1  0  0  0  0  0999 V2000
   28.2841  -21.2105  -14.6878 C   0  0  0  0  0  0  0  0  0  0  0  0
   27.1353  -20.2307  -14.9568 C   0  0  2  0  0  0  0  0  0  0  0  0
   27.6057  -19.1502  -15.7823 N   0  0  0  0  0  0  0  0  0  0  0  0
   26.6144  -19.8222  -13.6422 C   0  0  0  0  0  0  0  0  0  0  0  0
   27.2350  -18.8811  -13.0625 O   0  0  0  0  0  0  0  0  0  0  0  0
   25.5035  -20.3913  -13.0049 N   0  0  0  0  0  0  0  0  0  0  0  0
   24.7106  -21.4864  -13.4984 C   0  0  0  0  0  0  0  0  0  0  0  0
   23.8484  -21.8736  -12.3299 C   0  0  0  0  0  0  0  0  0  0  0  0
   23.5540  -20.5363  -11.6890 C   0  0  0  0  0  0  0  0  0  0  0  0
   24.9763  -19.9492  -11.7175 C   0  0  1  0  0  0  0  0  0  0  0  0
   25.6951  -20.5382  -10.5883 C   0  0  0  0  0  0  0  0  0  0  0  0
   26.0822  -21.7437  -10.6106 O   0  0  0  0  0  0  0  0  0  0  0  0
   26.8419  -18.4440   -6.7976 C   0  0  0  0  0  0  0  0  0  0  0  0
   27.6444  -19.5027   -7.5263 C   0  0  1  0  0  0  0  0  0  0  0  0
   28.3622  -20.3233   -6.4719 C   0  0  0  0  0  0  0  0  0  0  0  0
   26.7520  -20.3765   -8.2925 C   0  0  2  0  0  0  0  0  0  0  0  0
   26.0323  -19.8703   -9.3881 N   0  0  0  0  0  0  0  0  0  0  0  0
   25.8098  -21.0364   -7.3551 C   0  0  0  0  0  0  0  0  0  0  0  0
   24.6262  -20.6253   -7.3076 O   0  0  0  0  0  0  0  0  0  0  0  0
   26.1377  -22.0829   -6.5183 O   0  0  0  0  0  0  0  0  0  0  0  0
  2  4  1  0
  2  1  1  1
  3  2  1  0
  4  5  2  0
  6  4  1  0
  6 10  1  0
  7  6  1  0
  7  8  1  0
  8  9  1  0
 10 11  1  1
 10  9  1  0
 11 12  2  0
 11 17  1  0
 14 13  1  1
 14 15  1  0
 14 16  1  0
 16 18  1  0
 16 17  1  6
 18 19  2  0
 18 20  1  0
M  END
$$$$
