APV.pdb
     RDKit          3D

 20 20  0  0  1  0  0  0  0  0999 V2000
   20.6889  -11.5581  -18.9349 C   0  0  0  0  0  0  0  0  0  0  0  0
   20.4321  -12.2304  -17.5806 C   0  0  2  0  0  0  0  0  0  0  0  0
   19.1381  -12.8594  -17.5915 N   0  0  0  0  0  0  0  0  0  0  0  0
   20.6041  -11.1891  -16.5546 C   0  0  0  0  0  0  0  0  0  0  0  0
   19.6272  -10.3981  -16.3912 O   0  0  0  0  0  0  0  0  0  0  0  0
   21.7494  -11.0194  -15.7649 N   0  0  0  0  0  0  0  0  0  0  0  0
   22.9694  -11.7764  -15.8651 C   0  0  0  0  0  0  0  0  0  0  0  0
   23.9441  -11.0208  -15.0063 C   0  0  0  0  0  0  0  0  0  0  0  0
   23.0684  -10.5383  -13.8723 C   0  0  0  0  0  0  0  0  0  0  0  0
   21.8777  -10.0267  -14.7025 C   0  0  1  0  0  0  0  0  0  0  0  0
   22.2579   -8.7098  -15.2122 C   0  0  0  0  0  0  0  0  0  0  0  0
   23.0144   -8.5871  -16.2202 O   0  0  0  0  0  0  0  0  0  0  0  0
   20.4752   -6.4278  -17.1187 C   0  0  0  0  0  0  0  0  0  0  0  0
   20.9074   -5.5555  -15.9576 C   0  0  1  0  0  0  0  0  0  0  0  0
   19.7133   -5.4199  -15.0324 C   0  0  0  0  0  0  0  0  0  0  0  0
   22.0108   -6.1894  -15.2312 C   0  0  2  0  0  0  0  0  0  0  0  0
   21.8496   -7.4682  -14.6716 N   0  0  0  0  0  0  0  0  0  0  0  0
   22.4893   -5.2562  -14.1813 C   0  0  0  0  0  0  0  0  0  0  0  0
   23.1159   -4.2289  -14.5338 O   0  0  0  0  0  0  0  0  0  0  0  0
   22.2964   -5.4318  -12.8268 O   0  0  0  0  0  0  0  0  0  0  0  0
  2  4  1  0
  2  1  1  6
  3  2  1  0
  4  5  2  0
  6  4  1  0
  6 10  1  0
  7  6  1  0
  7  8  1  0
  8  9  1  0
 10 11  1  6
 10  9  1  0
 11 12  2  0
 11 17  1  0
 14 13  1  6
 14 15  1  0
 14 16  1  0
 16 18  1  0
 16 17  1  1
 18 19  2  0
 18 20  1  0
M  END
$$$$
