APV.pdb
     RDKit          3D

 20 20  0  0  1  0  0  0  0  0999 V2000
   41.4399   -6.1959  -13.1599 C   0  0  0  0  0  0  0  0  0  0  0  0
   41.4787   -7.6245  -13.7166 C   0  0  2  0  0  0  0  0  0  0  0  0
   40.7596   -7.6769  -14.9618 N   0  0  0  0  0  0  0  0  0  0  0  0
   40.9495   -8.5022  -12.6602 C   0  0  0  0  0  0  0  0  0  0  0  0
   39.7037   -8.7332  -12.6969 O   0  0  0  0  0  0  0  0  0  0  0  0
   41.7145   -9.0859  -11.6413 N   0  0  0  0  0  0  0  0  0  0  0  0
   43.1314   -8.9254  -11.4455 C   0  0  0  0  0  0  0  0  0  0  0  0
   43.3851   -9.5143  -10.0864 C   0  0  0  0  0  0  0  0  0  0  0  0
   42.4202  -10.6778  -10.0536 C   0  0  0  0  0  0  0  0  0  0  0  0
   41.1752   -9.9600  -10.6041 C   0  0  1  0  0  0  0  0  0  0  0  0
   40.5962   -9.2116   -9.4891 C   0  0  0  0  0  0  0  0  0  0  0  0
   40.9485   -8.0207   -9.2417 O   0  0  0  0  0  0  0  0  0  0  0  0
   37.7006  -10.6176   -6.3197 C   0  0  0  0  0  0  0  0  0  0  0  0
   37.4780   -9.5119   -7.3316 C   0  0  1  0  0  0  0  0  0  0  0  0
   36.6692   -8.4308   -6.6409 C   0  0  0  0  0  0  0  0  0  0  0  0
   38.7624   -8.9529   -7.7617 C   0  0  2  0  0  0  0  0  0  0  0  0
   39.6183   -9.6980   -8.5904 N   0  0  0  0  0  0  0  0  0  0  0  0
   39.5139   -8.5066   -6.5625 C   0  0  0  0  0  0  0  0  0  0  0  0
   39.1533   -7.4520   -5.9880 O   0  0  0  0  0  0  0  0  0  0  0  0
   40.5950   -9.1704   -6.0207 O   0  0  0  0  0  0  0  0  0  0  0  0
  2  4  1  0
  2  1  1  1
  3  2  1  0
  4  5  2  0
  6  4  1  0
  6 10  1  0
  7  6  1  0
  7  8  1  0
  8  9  1  0
 10 11  1  1
 10  9  1  0
 11 12  2  0
 11 17  1  0
 14 13  1  1
 14 15  1  0
 14 16  1  0
 16 18  1  0
 16 17  1  1
 18 19  2  0
 18 20  1  0
M  END
$$$$
