APV.pdb
     RDKit          3D

 20 20  0  0  1  0  0  0  0  0999 V2000
   20.8550  -13.7276  -18.9901 C   0  0  0  0  0  0  0  0  0  0  0  0
   21.0104  -14.3480  -17.5961 C   0  0  2  0  0  0  0  0  0  0  0  0
   19.9579  -15.3033  -17.3729 N   0  0  0  0  0  0  0  0  0  0  0  0
   21.0431  -13.2300  -16.6393 C   0  0  0  0  0  0  0  0  0  0  0  0
   19.9184  -12.7830  -16.2627 O   0  0  0  0  0  0  0  0  0  0  0  0
   22.2084  -12.6420  -16.1290 N   0  0  0  0  0  0  0  0  0  0  0  0
   23.5597  -12.9903  -16.4817 C   0  0  0  0  0  0  0  0  0  0  0  0
   24.3925  -11.8940  -15.8792 C   0  0  0  0  0  0  0  0  0  0  0  0
   23.6590  -11.6031  -14.5896 C   0  0  0  0  0  0  0  0  0  0  0  0
   22.2241  -11.5642  -15.1446 C   0  0  1  0  0  0  0  0  0  0  0  0
   22.0472  -10.2476  -15.7559 C   0  0  0  0  0  0  0  0  0  0  0  0
   22.4232  -10.0166  -16.9428 O   0  0  0  0  0  0  0  0  0  0  0  0
   19.4544   -9.1409  -17.2892 C   0  0  0  0  0  0  0  0  0  0  0  0
   19.5963   -7.9830  -16.3222 C   0  0  1  0  0  0  0  0  0  0  0  0
   18.5798   -8.1970  -15.2172 C   0  0  0  0  0  0  0  0  0  0  0  0
   20.9423   -7.9688  -15.7432 C   0  0  2  0  0  0  0  0  0  0  0  0
   21.4632   -9.1212  -15.1308 N   0  0  0  0  0  0  0  0  0  0  0  0
   21.0434   -6.8286  -14.7990 C   0  0  0  0  0  0  0  0  0  0  0  0
   21.1850   -5.6741  -15.2672 O   0  0  0  0  0  0  0  0  0  0  0  0
   20.9930   -6.9395  -13.4249 O   0  0  0  0  0  0  0  0  0  0  0  0
  2  4  1  0
  2  1  1  6
  3  2  1  0
  4  5  2  0
  6  4  1  0
  6 10  1  0
  7  6  1  0
  7  8  1  0
  8  9  1  0
 10 11  1  6
 10  9  1  0
 11 12  2  0
 11 17  1  0
 14 13  1  6
 14 15  1  0
 14 16  1  0
 16 18  1  0
 16 17  1  1
 18 19  2  0
 18 20  1  0
M  END
$$$$
