GIY.pdb
     RDKit          3D

 25 25  0  0  1  0  0  0  0  0999 V2000
   24.1860  -15.1209  -16.5969 N   0  0  0  0  0  0  0  0  0  0  0  0
   24.4774  -13.8920  -15.9096 C   0  0  0  0  0  0  0  0  0  0  0  0
   23.5927  -12.7887  -16.4517 C   0  0  0  0  0  0  0  0  0  0  0  0
   23.6626  -12.4522  -17.6536 O   0  0  0  0  0  0  0  0  0  0  0  0
   18.9958  -13.5624  -15.4338 C   0  0  0  0  0  0  0  0  0  0  0  0
   19.8289  -12.7435  -16.3669 C   0  0  0  0  0  0  0  0  0  0  0  0
   20.4105  -11.5008  -15.8144 C   0  0  2  0  0  0  0  0  0  0  0  0
   19.3826  -10.3874  -15.6868 C   0  0  0  0  0  0  0  0  0  0  0  0
   21.7676  -11.0845  -16.1958 C   0  0  2  0  0  0  0  0  0  0  0  0
   22.6769  -12.1191  -15.6252 N   0  0  0  0  0  0  0  0  0  0  0  0
   22.2622   -9.7631  -15.8610 C   0  0  0  0  0  0  0  0  0  0  0  0
   22.5285   -9.4163  -14.6588 O   0  0  0  0  0  0  0  0  0  0  0  0
   24.6700   -1.2104  -16.8268 O   0  0  0  0  0  0  0  0  0  0  0  0
   24.3422   -2.5540  -17.0397 C   0  0  0  0  0  0  0  0  0  0  0  0
   24.9574   -3.5517  -16.3154 C   0  0  0  0  0  0  0  0  0  0  0  0
   24.6466   -4.8784  -16.5123 C   0  0  0  0  0  0  0  0  0  0  0  0
   23.7094   -5.2552  -17.4405 C   0  0  0  0  0  0  0  0  0  0  0  0
   23.3660   -6.6562  -17.6830 C   0  0  0  0  0  0  0  0  0  0  0  0
   22.9349   -7.4076  -16.4141 C   0  0  2  0  0  0  0  0  0  0  0  0
   22.5055   -8.7486  -16.8212 N   0  0  0  0  0  0  0  0  0  0  0  0
   21.8210   -6.7058  -15.7991 C   0  0  0  0  0  0  0  0  0  0  0  0
   21.9969   -6.0447  -14.7456 O   0  0  0  0  0  0  0  0  0  0  0  0
   23.0899   -4.2523  -18.1700 C   0  0  0  0  0  0  0  0  0  0  0  0
   23.4002   -2.9245  -17.9737 C   0  0  0  0  0  0  0  0  0  0  0  0
   20.5603   -6.7395  -16.3406 O   0  0  0  0  0  0  0  0  0  0  0  0
  1  2  1  0
  2  3  1  0
  3 10  1  0
  3  4  2  0
  6  5  1  0
  7  8  1  6
  7  6  1  0
  9  7  1  0
  9 10  1  1
 11 12  2  0
 11  9  1  0
 14 13  1  0
 14 24  2  0
 15 14  1  0
 16 15  2  0
 16 17  1  0
 17 23  2  0
 18 17  1  0
 19 18  1  6
 19 20  1  0
 20 11  1  0
 21 19  1  0
 21 25  1  0
 22 21  2  0
 23 24  1  0
M  END
$$$$
