GIY.pdb
     RDKit          3D

 25 25  0  0  1  0  0  0  0  0999 V2000
   22.8670  -14.4633  -17.8336 N   0  0  0  0  0  0  0  0  0  0  0  0
   23.0617  -14.9683  -16.5014 C   0  0  0  0  0  0  0  0  0  0  0  0
   23.7730  -16.3037  -16.5670 C   0  0  0  0  0  0  0  0  0  0  0  0
   23.1284  -17.3572  -16.7608 O   0  0  0  0  0  0  0  0  0  0  0  0
   28.6084  -16.7131  -19.0057 C   0  0  0  0  0  0  0  0  0  0  0  0
   27.2353  -16.9013  -18.4450 C   0  0  0  0  0  0  0  0  0  0  0  0
   27.1512  -17.4720  -17.0829 C   0  0  2  0  0  0  0  0  0  0  0  0
   28.2203  -18.5231  -16.8287 C   0  0  0  0  0  0  0  0  0  0  0  0
   25.8416  -17.7218  -16.4639 C   0  0  2  0  0  0  0  0  0  0  0  0
   25.1652  -16.3941  -16.4130 N   0  0  0  0  0  0  0  0  0  0  0  0
   25.7416  -18.3694  -15.1703 C   0  0  0  0  0  0  0  0  0  0  0  0
   26.2401  -17.8585  -14.1087 O   0  0  0  0  0  0  0  0  0  0  0  0
   23.0417  -21.9403   -7.7788 O   0  0  0  0  0  0  0  0  0  0  0  0
   23.2524  -21.3513   -9.0304 C   0  0  0  0  0  0  0  0  0  0  0  0
   22.3209  -21.4850  -10.0370 C   0  0  0  0  0  0  0  0  0  0  0  0
   22.5126  -20.9118  -11.2740 C   0  0  0  0  0  0  0  0  0  0  0  0
   23.6427  -20.1843  -11.5491 C   0  0  0  0  0  0  0  0  0  0  0  0
   23.8824  -19.5739  -12.8565 C   0  0  0  0  0  0  0  0  0  0  0  0
   25.0377  -20.2255  -13.6319 C   0  0  2  0  0  0  0  0  0  0  0  0
   25.0811  -19.6062  -14.9598 N   0  0  0  0  0  0  0  0  0  0  0  0
   24.7788  -21.6489  -13.7671 C   0  0  0  0  0  0  0  0  0  0  0  0
   24.1847  -22.0878  -14.7832 O   0  0  0  0  0  0  0  0  0  0  0  0
   24.5807  -20.0492  -10.5374 C   0  0  0  0  0  0  0  0  0  0  0  0
   24.3897  -20.6223   -9.2992 C   0  0  0  0  0  0  0  0  0  0  0  0
   25.1697  -22.5473  -12.8061 O   0  0  0  0  0  0  0  0  0  0  0  0
  1  2  1  0
  2  3  1  0
  3 10  1  0
  3  4  2  0
  6  5  1  0
  7  8  1  6
  7  6  1  0
  9  7  1  0
  9 10  1  1
 11 12  2  0
 11  9  1  0
 14 13  1  0
 14 24  2  0
 15 14  1  0
 16 15  2  0
 16 17  1  0
 17 23  2  0
 18 17  1  0
 19 18  1  1
 19 20  1  0
 20 11  1  0
 21 19  1  0
 21 25  1  0
 22 21  2  0
 23 24  1  0
M  END
$$$$
