GIY.pdb
     RDKit          3D

 25 25  0  0  1  0  0  0  0  0999 V2000
   26.3457  -14.5829  -15.9817 N   0  0  0  0  0  0  0  0  0  0  0  0
   25.1458  -14.4436  -15.2017 C   0  0  0  0  0  0  0  0  0  0  0  0
   24.2135  -13.4623  -15.8811 C   0  0  0  0  0  0  0  0  0  0  0  0
   24.5490  -12.9026  -16.9474 O   0  0  0  0  0  0  0  0  0  0  0  0
   20.2639  -15.6351  -16.8215 C   0  0  0  0  0  0  0  0  0  0  0  0
   21.0588  -14.4314  -17.2146 C   0  0  0  0  0  0  0  0  0  0  0  0
   20.8555  -13.2122  -16.4020 C   0  0  2  0  0  0  0  0  0  0  0  0
   19.5325  -12.5273  -16.7067 C   0  0  0  0  0  0  0  0  0  0  0  0
   21.9877  -12.3235  -16.1036 C   0  0  2  0  0  0  0  0  0  0  0  0
   22.9568  -13.1568  -15.3359 N   0  0  0  0  0  0  0  0  0  0  0  0
   21.7824  -11.0611  -15.4203 C   0  0  0  0  0  0  0  0  0  0  0  0
   21.3150  -10.9943  -14.2314 O   0  0  0  0  0  0  0  0  0  0  0  0
   21.6475   -2.2134  -14.1300 O   0  0  0  0  0  0  0  0  0  0  0  0
   21.9363   -3.5214  -14.5347 C   0  0  0  0  0  0  0  0  0  0  0  0
   22.4374   -4.4408  -13.6391 C   0  0  0  0  0  0  0  0  0  0  0  0
   22.7267   -5.7316  -14.0207 C   0  0  0  0  0  0  0  0  0  0  0  0
   22.5254   -6.1495  -15.3118 C   0  0  0  0  0  0  0  0  0  0  0  0
   22.8348   -7.5095  -15.7523 C   0  0  0  0  0  0  0  0  0  0  0  0
   21.8189   -8.5547  -15.2663 C   0  0  2  0  0  0  0  0  0  0  0  0
   22.0871   -9.7997  -15.9918 N   0  0  0  0  0  0  0  0  0  0  0  0
   20.4756   -8.0928  -15.5724 C   0  0  0  0  0  0  0  0  0  0  0  0
   19.7543   -7.6067  -14.6661 O   0  0  0  0  0  0  0  0  0  0  0  0
   22.0215   -5.2253  -16.2139 C   0  0  0  0  0  0  0  0  0  0  0  0
   21.7316   -3.9335  -15.8329 C   0  0  0  0  0  0  0  0  0  0  0  0
   19.9586   -8.1693  -16.8415 O   0  0  0  0  0  0  0  0  0  0  0  0
  1  2  1  0
  2  3  1  0
  3 10  1  0
  3  4  2  0
  6  5  1  0
  7  8  1  6
  7  6  1  0
  9  7  1  0
  9 10  1  1
 11 12  2  0
 11  9  1  0
 14 13  1  0
 14 24  2  0
 15 14  1  0
 16 15  2  0
 16 17  1  0
 17 23  2  0
 18 17  1  0
 19 18  1  6
 19 20  1  0
 20 11  1  0
 21 19  1  0
 21 25  1  0
 22 21  2  0
 23 24  1  0
M  END
$$$$
