GIY.pdb
     RDKit          3D

 25 25  0  0  1  0  0  0  0  0999 V2000
   28.5020  -21.4077  -16.1964 N   0  0  0  0  0  0  0  0  0  0  0  0
   27.9394  -20.3518  -15.3987 C   0  0  0  0  0  0  0  0  0  0  0  0
   26.8985  -20.9275  -14.4613 C   0  0  0  0  0  0  0  0  0  0  0  0
   26.5200  -22.1126  -14.5843 O   0  0  0  0  0  0  0  0  0  0  0  0
   27.6422  -20.7659   -9.4836 C   0  0  0  0  0  0  0  0  0  0  0  0
   27.1345  -21.0943  -10.8510 C   0  0  0  0  0  0  0  0  0  0  0  0
   25.7823  -20.5995  -11.1894 C   0  0  2  0  0  0  0  0  0  0  0  0
   24.7771  -20.8557  -10.0775 C   0  0  0  0  0  0  0  0  0  0  0  0
   25.2705  -20.7220  -12.5618 C   0  0  2  0  0  0  0  0  0  0  0  0
   26.3348  -20.1517  -13.4364 N   0  0  0  0  0  0  0  0  0  0  0  0
   23.9851  -20.1604  -12.9294 C   0  0  0  0  0  0  0  0  0  0  0  0
   23.7951  -18.9002  -13.0403 O   0  0  0  0  0  0  0  0  0  0  0  0
   17.2690  -17.6814  -17.6621 O   0  0  0  0  0  0  0  0  0  0  0  0
   18.3921  -18.2416  -17.0434 C   0  0  0  0  0  0  0  0  0  0  0  0
   19.2916  -17.4476  -16.3658 C   0  0  0  0  0  0  0  0  0  0  0  0
   20.4016  -17.9825  -15.7515 C   0  0  0  0  0  0  0  0  0  0  0  0
   20.6521  -19.3307  -15.7927 C   0  0  0  0  0  0  0  0  0  0  0  0
   21.8285  -19.9285  -15.1619 C   0  0  0  0  0  0  0  0  0  0  0  0
   21.5992  -20.3266  -13.6958 C   0  0  2  0  0  0  0  0  0  0  0  0
   22.8364  -20.9434  -13.2085 N   0  0  0  0  0  0  0  0  0  0  0  0
   20.5148  -21.2914  -13.6273 C   0  0  0  0  0  0  0  0  0  0  0  0
   20.7426  -22.5108  -13.8250 O   0  0  0  0  0  0  0  0  0  0  0  0
   19.7480  -20.1305  -16.4744 C   0  0  0  0  0  0  0  0  0  0  0  0
   18.6370  -19.5962  -17.0893 C   0  0  0  0  0  0  0  0  0  0  0  0
   19.2267  -20.9095  -13.3471 O   0  0  0  0  0  0  0  0  0  0  0  0
  1  2  1  0
  2  3  1  0
  3 10  1  0
  3  4  2  0
  6  5  1  0
  7  8  1  1
  7  6  1  0
  9  7  1  0
  9 10  1  6
 11 12  2  0
 11  9  1  0
 14 13  1  0
 14 24  2  0
 15 14  1  0
 16 15  2  0
 16 17  1  0
 17 23  2  0
 18 17  1  0
 19 18  1  6
 19 20  1  0
 20 11  1  0
 21 19  1  0
 21 25  1  0
 22 21  2  0
 23 24  1  0
M  END
$$$$
