GIY.pdb
     RDKit          3D

 25 25  0  0  1  0  0  0  0  0999 V2000
   28.6242  -21.5764  -15.5008 N   0  0  0  0  0  0  0  0  0  0  0  0
   28.1814  -20.5448  -14.6023 C   0  0  0  0  0  0  0  0  0  0  0  0
   27.0591  -21.0777  -13.7361 C   0  0  0  0  0  0  0  0  0  0  0  0
   26.3940  -22.0717  -14.0999 O   0  0  0  0  0  0  0  0  0  0  0  0
   27.4489  -20.5287   -8.4118 C   0  0  0  0  0  0  0  0  0  0  0  0
   27.0865  -21.1034   -9.7436 C   0  0  0  0  0  0  0  0  0  0  0  0
   25.8208  -20.6292  -10.3446 C   0  0  2  0  0  0  0  0  0  0  0  0
   24.6473  -20.7375   -9.3836 C   0  0  0  0  0  0  0  0  0  0  0  0
   25.5238  -20.9024  -11.7580 C   0  0  2  0  0  0  0  0  0  0  0  0
   26.7378  -20.4742  -12.5103 N   0  0  0  0  0  0  0  0  0  0  0  0
   24.3401  -20.3519  -12.3893 C   0  0  0  0  0  0  0  0  0  0  0  0
   24.2378  -19.1125  -12.6892 O   0  0  0  0  0  0  0  0  0  0  0  0
   17.7966  -18.8134  -17.9053 O   0  0  0  0  0  0  0  0  0  0  0  0
   18.8894  -19.2838  -17.1687 C   0  0  0  0  0  0  0  0  0  0  0  0
   18.8955  -20.5636  -16.6580 C   0  0  0  0  0  0  0  0  0  0  0  0
   19.9624  -21.0421  -15.9313 C   0  0  0  0  0  0  0  0  0  0  0  0
   21.0618  -20.2580  -15.6890 C   0  0  0  0  0  0  0  0  0  0  0  0
   22.2055  -20.7316  -14.9100 C   0  0  0  0  0  0  0  0  0  0  0  0
   22.0457  -20.5150  -13.3973 C   0  0  2  0  0  0  0  0  0  0  0  0
   23.2049  -21.1256  -12.7403 N   0  0  0  0  0  0  0  0  0  0  0  0
   20.8298  -21.1711  -12.9472 C   0  0  0  0  0  0  0  0  0  0  0  0
   19.7796  -20.5035  -12.7760 O   0  0  0  0  0  0  0  0  0  0  0  0
   21.0568  -18.9701  -16.2021 C   0  0  0  0  0  0  0  0  0  0  0  0
   19.9896  -18.4905  -16.9295 C   0  0  0  0  0  0  0  0  0  0  0  0
   20.7879  -22.5204  -12.6996 O   0  0  0  0  0  0  0  0  0  0  0  0
  1  2  1  0
  2  3  1  0
  3 10  1  0
  3  4  2  0
  6  5  1  0
  7  8  1  1
  7  6  1  0
  9  7  1  0
  9 10  1  6
 11 12  2  0
 11  9  1  0
 14 13  1  0
 14 24  2  0
 15 14  1  0
 16 15  2  0
 16 17  1  0
 17 23  2  0
 18 17  1  0
 19 18  1  6
 19 20  1  0
 20 11  1  0
 21 19  1  0
 21 25  1  0
 22 21  2  0
 23 24  1  0
M  END
$$$$
