GIY.pdb
     RDKit          3D

 25 25  0  0  1  0  0  0  0  0999 V2000
   20.3710  -22.5349   -6.3666 N   0  0  0  0  0  0  0  0  0  0  0  0
   21.7573  -22.7652   -6.6710 C   0  0  0  0  0  0  0  0  0  0  0  0
   22.2643  -21.6638   -7.5785 C   0  0  0  0  0  0  0  0  0  0  0  0
   21.5211  -20.7096   -7.8946 O   0  0  0  0  0  0  0  0  0  0  0  0
   27.2113  -19.6484   -7.0420 C   0  0  0  0  0  0  0  0  0  0  0  0
   25.7659  -19.9185   -7.3126 C   0  0  0  0  0  0  0  0  0  0  0  0
   25.4209  -20.3499   -8.6848 C   0  0  2  0  0  0  0  0  0  0  0  0
   26.2479  -19.6346   -9.7417 C   0  0  0  0  0  0  0  0  0  0  0  0
   24.0239  -20.6342   -9.0428 C   0  0  2  0  0  0  0  0  0  0  0  0
   23.5730  -21.6844   -8.0854 N   0  0  0  0  0  0  0  0  0  0  0  0
   23.6661  -21.0206  -10.3939 C   0  0  0  0  0  0  0  0  0  0  0  0
   23.9604  -22.1673  -10.8786 O   0  0  0  0  0  0  0  0  0  0  0  0
   19.0265  -21.7751  -17.8675 O   0  0  0  0  0  0  0  0  0  0  0  0
   19.5202  -21.4413  -16.6015 C   0  0  0  0  0  0  0  0  0  0  0  0
   19.9674  -20.1657  -16.3343 C   0  0  0  0  0  0  0  0  0  0  0  0
   20.4560  -19.8206  -15.0943 C   0  0  0  0  0  0  0  0  0  0  0  0
   20.5149  -20.7388  -14.0766 C   0  0  0  0  0  0  0  0  0  0  0  0
   21.0403  -20.4079  -12.7523 C   0  0  0  0  0  0  0  0  0  0  0  0
   22.5498  -20.6585  -12.6142 C   0  0  2  0  0  0  0  0  0  0  0  0
   22.9558  -20.1813  -11.2891 N   0  0  0  0  0  0  0  0  0  0  0  0
   23.2541  -19.9065  -13.6390 C   0  0  0  0  0  0  0  0  0  0  0  0
   23.5910  -18.7151  -13.4270 O   0  0  0  0  0  0  0  0  0  0  0  0
   20.0654  -22.0226  -14.3442 C   0  0  0  0  0  0  0  0  0  0  0  0
   19.5763  -22.3688  -15.5848 C   0  0  0  0  0  0  0  0  0  0  0  0
   23.5714  -20.4640  -14.8523 O   0  0  0  0  0  0  0  0  0  0  0  0
  1  2  1  0
  2  3  1  0
  3 10  1  0
  3  4  2  0
  6  5  1  0
  7  8  1  6
  7  6  1  0
  9  7  1  0
  9 10  1  1
 11 12  2  0
 11  9  1  0
 14 13  1  0
 14 24  2  0
 15 14  1  0
 16 15  2  0
 16 17  1  0
 17 23  2  0
 18 17  1  0
 19 18  1  6
 19 20  1  0
 20 11  1  0
 21 19  1  0
 21 25  1  0
 22 21  2  0
 23 24  1  0
M  END
$$$$
