GIY.pdb
     RDKit          3D

 25 25  0  0  1  0  0  0  0  0999 V2000
   27.5731  -21.0243  -14.8194 N   0  0  0  0  0  0  0  0  0  0  0  0
   27.5515  -20.6453  -16.2063 C   0  0  0  0  0  0  0  0  0  0  0  0
   27.0806  -19.2112  -16.3302 C   0  0  0  0  0  0  0  0  0  0  0  0
   26.7099  -18.5755  -15.3196 O   0  0  0  0  0  0  0  0  0  0  0  0
   29.7243  -15.9582  -19.4962 C   0  0  0  0  0  0  0  0  0  0  0  0
   28.8698  -16.4607  -18.3770 C   0  0  0  0  0  0  0  0  0  0  0  0
   27.4106  -16.4801  -18.6183 C   0  0  2  0  0  0  0  0  0  0  0  0
   26.8990  -15.1624  -19.1790 C   0  0  0  0  0  0  0  0  0  0  0  0
   26.5141  -17.1738  -17.6825 C   0  0  2  0  0  0  0  0  0  0  0  0
   27.0480  -18.5617  -17.5740 N   0  0  0  0  0  0  0  0  0  0  0  0
   25.0839  -17.2191  -17.9177 C   0  0  0  0  0  0  0  0  0  0  0  0
   24.5518  -18.0364  -18.7455 O   0  0  0  0  0  0  0  0  0  0  0  0
   16.3442  -16.8396  -16.9537 O   0  0  0  0  0  0  0  0  0  0  0  0
   17.7321  -16.8021  -16.7801 C   0  0  0  0  0  0  0  0  0  0  0  0
   18.3547  -15.6571  -16.3328 C   0  0  0  0  0  0  0  0  0  0  0  0
   19.7191  -15.6032  -16.1565 C   0  0  0  0  0  0  0  0  0  0  0  0
   20.5101  -16.6924  -16.4212 C   0  0  0  0  0  0  0  0  0  0  0  0
   21.9632  -16.6638  -16.2569 C   0  0  0  0  0  0  0  0  0  0  0  0
   22.7222  -16.4374  -17.5734 C   0  0  2  0  0  0  0  0  0  0  0  0
   24.1516  -16.3824  -17.2535 N   0  0  0  0  0  0  0  0  0  0  0  0
   22.3045  -15.1724  -18.1537 C   0  0  0  0  0  0  0  0  0  0  0  0
   22.8983  -14.1099  -17.8433 O   0  0  0  0  0  0  0  0  0  0  0  0
   19.8849  -17.8449  -16.8715 C   0  0  0  0  0  0  0  0  0  0  0  0
   18.5197  -17.8997  -17.0481 C   0  0  0  0  0  0  0  0  0  0  0  0
   21.2653  -15.0973  -19.0471 O   0  0  0  0  0  0  0  0  0  0  0  0
  1  2  1  0
  2  3  1  0
  3 10  1  0
  3  4  2  0
  6  5  1  0
  7  8  1  1
  7  6  1  0
  9  7  1  0
  9 10  1  6
 11 12  2  0
 11  9  1  0
 14 13  1  0
 14 24  2  0
 15 14  1  0
 16 15  2  0
 16 17  1  0
 17 23  2  0
 18 17  1  0
 19 18  1  1
 19 20  1  0
 20 11  1  0
 21 19  1  0
 21 25  1  0
 22 21  2  0
 23 24  1  0
M  END
$$$$
