LNA.pdb
     RDKit          3D

 22 21  0  0  1  0  0  0  0  0999 V2000
   25.4046  -19.9753   -9.6541 C   0  0  0  0  0  0  0  0  0  0  0  0
   25.3448  -21.2778  -10.4487 C   0  0  2  0  0  0  0  0  0  0  0  0
   26.6937  -21.9696  -10.4099 C   0  0  0  0  0  0  0  0  0  0  0  0
   24.9431  -20.9888  -11.8729 C   0  0  0  0  0  0  0  0  0  0  0  0
   23.6105  -20.3347  -11.8925 C   0  0  2  0  0  0  0  0  0  0  0  0
   22.7141  -20.7276  -10.8549 N   0  0  0  0  0  0  0  0  0  0  0  0
   22.8912  -20.5167  -13.1869 C   0  0  0  0  0  0  0  0  0  0  0  0
   23.4775  -20.5177  -14.2934 O   0  0  0  0  0  0  0  0  0  0  0  0
   20.7131  -23.6740  -13.8209 N   0  0  0  0  0  0  0  0  0  0  0  0
   19.4922  -23.0321  -13.5249 C   0  0  0  0  0  0  0  0  0  0  0  0
   18.5675  -23.7346  -13.0397 O   0  0  0  0  0  0  0  0  0  0  0  0
   19.3828  -21.5944  -13.8015 C   0  0  0  0  0  0  0  0  0  0  0  0
   20.6863  -20.9975  -14.3330 C   0  0  2  0  0  0  0  0  0  0  0  0
   21.5020  -20.6950  -13.1788 N   0  0  0  0  0  0  0  0  0  0  0  0
   20.3224  -19.7127  -14.9612 C   0  0  0  0  0  0  0  0  0  0  0  0
   19.7396  -18.8455  -14.2640 O   0  0  0  0  0  0  0  0  0  0  0  0
   21.2755  -17.5014  -17.7086 C   0  0  0  0  0  0  0  0  0  0  0  0
   20.2250  -18.0891  -16.7926 C   0  0  2  0  0  0  0  0  0  0  0  0
   20.5955  -19.4003  -16.3162 N   0  0  0  0  0  0  0  0  0  0  0  0
   18.9036  -18.1859  -17.4619 C   0  0  0  0  0  0  0  0  0  0  0  0
   18.3991  -19.2814  -17.8122 O   0  0  0  0  0  0  0  0  0  0  0  0
   18.1743  -17.0361  -17.7235 O   0  0  0  0  0  0  0  0  0  0  0  0
  2  1  1  1
  2  3  1  0
  4  2  1  0
  4  5  1  0
  5  7  1  0
  5  6  1  1
  7  8  2  0
  7 14  1  0
  9 10  1  0
 10 12  1  0
 10 11  2  0
 13 15  1  0
 13 12  1  1
 14 13  1  0
 15 16  2  0
 18 17  1  6
 19 18  1  0
 19 15  1  0
 20 22  1  0
 20 18  1  0
 21 20  2  0
M  END
$$$$
