LNA.pdb
     RDKit          3D

 22 21  0  0  1  0  0  0  0  0999 V2000
   17.8114  -12.8262  -17.4119 C   0  0  0  0  0  0  0  0  0  0  0  0
   18.8504  -13.1015  -16.3273 C   0  0  2  0  0  0  0  0  0  0  0  0
   18.4691  -14.3467  -15.5502 C   0  0  0  0  0  0  0  0  0  0  0  0
   18.9497  -11.9147  -15.4027 C   0  0  0  0  0  0  0  0  0  0  0  0
   19.3075  -10.7032  -16.1827 C   0  0  2  0  0  0  0  0  0  0  0  0
   20.5813  -10.7349  -16.8236 N   0  0  0  0  0  0  0  0  0  0  0  0
   19.2545   -9.4518  -15.3720 C   0  0  0  0  0  0  0  0  0  0  0  0
   18.2724   -9.1494  -14.6564 O   0  0  0  0  0  0  0  0  0  0  0  0
   22.8665   -4.8169  -14.2109 N   0  0  0  0  0  0  0  0  0  0  0  0
   22.2239   -5.9194  -13.6094 C   0  0  0  0  0  0  0  0  0  0  0  0
   21.9204   -5.8234  -12.3918 O   0  0  0  0  0  0  0  0  0  0  0  0
   21.9537   -7.0992  -14.4404 C   0  0  0  0  0  0  0  0  0  0  0  0
   20.4582   -7.3509  -14.6348 C   0  0  2  0  0  0  0  0  0  0  0  0
   20.3417   -8.5694  -15.4034 N   0  0  0  0  0  0  0  0  0  0  0  0
   19.9640   -6.2490  -15.4829 C   0  0  0  0  0  0  0  0  0  0  0  0
   20.4162   -6.1379  -16.6494 O   0  0  0  0  0  0  0  0  0  0  0  0
   17.0843   -4.2228  -16.1318 C   0  0  0  0  0  0  0  0  0  0  0  0
   18.5890   -4.2866  -15.9907 C   0  0  2  0  0  0  0  0  0  0  0  0
   19.0013   -5.3026  -15.0519 N   0  0  0  0  0  0  0  0  0  0  0  0
   19.1564   -2.9852  -15.5574 C   0  0  0  0  0  0  0  0  0  0  0  0
   19.3894   -2.7136  -14.3535 O   0  0  0  0  0  0  0  0  0  0  0  0
   19.4511   -2.0108  -16.4987 O   0  0  0  0  0  0  0  0  0  0  0  0
  2  1  1  6
  2  3  1  0
  4  2  1  0
  4  5  1  0
  5  7  1  0
  5  6  1  1
  7  8  2  0
  7 14  1  0
  9 10  1  0
 10 12  1  0
 10 11  2  0
 13 15  1  0
 13 12  1  6
 14 13  1  0
 15 16  2  0
 18 17  1  1
 19 18  1  0
 19 15  1  0
 20 22  1  0
 20 18  1  0
 21 20  2  0
M  END
$$$$
