LNA.pdb
     RDKit          3D

 22 21  0  0  1  0  0  0  0  0999 V2000
   29.1668  -18.3197   -5.8733 C   0  0  0  0  0  0  0  0  0  0  0  0
   28.5705  -19.6414   -5.3948 C   0  0  2  0  0  0  0  0  0  0  0  0
   29.6005  -20.4131   -4.5926 C   0  0  0  0  0  0  0  0  0  0  0  0
   28.1115  -20.4529   -6.5797 C   0  0  0  0  0  0  0  0  0  0  0  0
   27.0791  -19.6968   -7.3324 C   0  0  2  0  0  0  0  0  0  0  0  0
   26.0689  -19.0747   -6.5405 N   0  0  0  0  0  0  0  0  0  0  0  0
   26.3838  -20.5253   -8.3600 C   0  0  0  0  0  0  0  0  0  0  0  0
   26.9534  -21.4500   -8.9833 O   0  0  0  0  0  0  0  0  0  0  0  0
   22.2896  -21.2594   -6.5759 N   0  0  0  0  0  0  0  0  0  0  0  0
   22.6861  -21.8721   -7.7832 C   0  0  0  0  0  0  0  0  0  0  0  0
   22.9174  -23.1089   -7.7602 O   0  0  0  0  0  0  0  0  0  0  0  0
   22.8016  -21.0294   -8.9799 C   0  0  0  0  0  0  0  0  0  0  0  0
   24.2148  -21.0282   -9.5636 C   0  0  2  0  0  0  0  0  0  0  0  0
   25.0376  -20.2689   -8.6496 N   0  0  0  0  0  0  0  0  0  0  0  0
   24.1374  -20.2627  -10.8228 C   0  0  0  0  0  0  0  0  0  0  0  0
   23.8568  -19.0396  -10.7674 O   0  0  0  0  0  0  0  0  0  0  0  0
   25.2748  -20.4353  -14.3397 C   0  0  0  0  0  0  0  0  0  0  0  0
   24.3512  -19.9530  -13.2432 C   0  0  2  0  0  0  0  0  0  0  0  0
   24.3634  -20.8340  -12.0998 N   0  0  0  0  0  0  0  0  0  0  0  0
   22.9524  -19.8194  -13.7214 C   0  0  0  0  0  0  0  0  0  0  0  0
   22.0367  -20.6030  -13.3681 O   0  0  0  0  0  0  0  0  0  0  0  0
   22.6141  -18.7968  -14.5944 O   0  0  0  0  0  0  0  0  0  0  0  0
  2  1  1  6
  2  3  1  0
  4  2  1  0
  4  5  1  0
  5  7  1  0
  5  6  1  1
  7  8  2  0
  7 14  1  0
  9 10  1  0
 10 12  1  0
 10 11  2  0
 13 15  1  0
 13 12  1  1
 14 13  1  0
 15 16  2  0
 18 17  1  6
 19 18  1  0
 19 15  1  0
 20 22  1  0
 20 18  1  0
 21 20  2  0
M  END
$$$$
