LNA.pdb
     RDKit          3D

 22 21  0  0  1  0  0  0  0  0999 V2000
   29.5417  -20.2996   -5.2689 C   0  0  0  0  0  0  0  0  0  0  0  0
   28.1257  -19.9320   -4.8317 C   0  0  2  0  0  0  0  0  0  0  0  0
   27.6918  -20.8219   -3.6830 C   0  0  0  0  0  0  0  0  0  0  0  0
   27.1783  -20.0768   -5.9956 C   0  0  0  0  0  0  0  0  0  0  0  0
   27.6107  -19.1890   -7.1042 C   0  0  2  0  0  0  0  0  0  0  0  0
   27.6730  -17.7983   -6.7935 N   0  0  0  0  0  0  0  0  0  0  0  0
   26.7658  -19.3289   -8.3259 C   0  0  0  0  0  0  0  0  0  0  0  0
   25.7575  -18.6171   -8.5374 O   0  0  0  0  0  0  0  0  0  0  0  0
   28.2525  -20.9165  -13.7531 N   0  0  0  0  0  0  0  0  0  0  0  0
   27.2683  -21.3500  -12.8401 C   0  0  0  0  0  0  0  0  0  0  0  0
   26.1829  -21.7770  -13.3129 O   0  0  0  0  0  0  0  0  0  0  0  0
   27.5749  -21.2741  -11.4063 C   0  0  0  0  0  0  0  0  0  0  0  0
   26.6619  -20.3001  -10.6609 C   0  0  2  0  0  0  0  0  0  0  0  0
   27.1030  -20.2929   -9.2845 N   0  0  0  0  0  0  0  0  0  0  0  0
   25.3143  -20.9009  -10.6860 C   0  0  0  0  0  0  0  0  0  0  0  0
   25.1306  -21.9922  -10.0918 O   0  0  0  0  0  0  0  0  0  0  0  0
   21.8450  -20.2120  -10.7051 C   0  0  0  0  0  0  0  0  0  0  0  0
   22.9547  -21.0272  -11.3312 C   0  0  2  0  0  0  0  0  0  0  0  0
   24.2082  -20.3116  -11.3474 N   0  0  0  0  0  0  0  0  0  0  0  0
   22.6237  -21.4313  -12.7205 C   0  0  0  0  0  0  0  0  0  0  0  0
   23.2897  -21.0505  -13.7149 O   0  0  0  0  0  0  0  0  0  0  0  0
   21.5403  -22.2627  -12.9601 O   0  0  0  0  0  0  0  0  0  0  0  0
  2  1  1  6
  2  3  1  0
  4  2  1  0
  4  5  1  0
  5  7  1  0
  5  6  1  1
  7  8  2  0
  7 14  1  0
  9 10  1  0
 10 12  1  0
 10 11  2  0
 13 15  1  0
 13 12  1  6
 14 13  1  0
 15 16  2  0
 18 17  1  6
 19 18  1  0
 19 15  1  0
 20 22  1  0
 20 18  1  0
 21 20  2  0
M  END
$$$$
