YYH.pdb
     RDKit          3D

 35 37  0  0  1  0  0  0  0  0999 V2000
   32.0404  -30.9106  -18.7031 O   0  0  0  0  0  0  0  0  0  0  0  0
   31.0032  -31.1828  -17.8128 C   0  0  0  0  0  0  0  0  0  0  0  0
   29.8137  -30.5040  -17.9749 C   0  0  0  0  0  0  0  0  0  0  0  0
   28.7457  -30.7282  -17.1252 C   0  0  0  0  0  0  0  0  0  0  0  0
   28.8527  -31.6369  -16.0985 C   0  0  0  0  0  0  0  0  0  0  0  0
   27.6933  -31.8578  -15.2024 C   0  0  0  0  0  0  0  0  0  0  0  0
   27.1837  -33.2613  -15.4751 C   0  0  2  0  0  0  0  0  0  0  0  0
   26.4669  -33.3450  -16.7227 N   0  0  0  0  0  0  0  0  0  0  0  0
   26.3353  -33.7796  -14.3870 C   0  0  0  0  0  0  0  0  0  0  0  0
   25.0938  -33.5870  -14.3194 O   0  0  0  0  0  0  0  0  0  0  0  0
   30.0610  -32.3098  -15.9535 C   0  0  0  0  0  0  0  0  0  0  0  0
   31.1214  -32.0896  -16.7945 C   0  0  0  0  0  0  0  0  0  0  0  0
   22.1945  -38.5431  -15.6636 O   0  0  0  0  0  0  0  0  0  0  0  0
   23.2140  -38.0385  -14.8457 C   0  0  0  0  0  0  0  0  0  0  0  0
   24.4612  -37.7263  -15.3111 C   0  0  0  0  0  0  0  0  0  0  0  0
   25.4687  -37.2293  -14.5108 C   0  0  0  0  0  0  0  0  0  0  0  0
   25.1686  -37.0498  -13.1751 C   0  0  0  0  0  0  0  0  0  0  0  0
   26.1525  -36.5275  -12.2159 C   0  0  0  0  0  0  0  0  0  0  0  0
   26.1356  -35.0276  -12.2070 C   0  0  2  0  0  0  0  0  0  0  0  0
   26.9063  -34.5509  -13.3235 N   0  0  0  0  0  0  0  0  0  0  0  0
   26.7428  -34.5917  -10.9077 C   0  0  0  0  0  0  0  0  0  0  0  0
   27.9503  -34.8114  -10.6460 O   0  0  0  0  0  0  0  0  0  0  0  0
   23.9029  -37.3605  -12.6738 C   0  0  0  0  0  0  0  0  0  0  0  0
   22.9276  -37.8559  -13.5170 C   0  0  0  0  0  0  0  0  0  0  0  0
   25.9777  -33.9160   -9.9272 N   0  0  0  0  0  0  0  0  0  0  0  0
   26.5876  -33.4809   -8.6575 C   0  0  1  0  0  0  0  0  0  0  0  0
   25.9104  -32.1863   -8.2914 C   0  0  0  0  0  0  0  0  0  0  0  0
   24.4594  -32.3992   -8.1839 C   0  0  0  0  0  0  0  0  0  0  0  0
   23.7782  -33.5614   -8.4434 C   0  0  0  0  0  0  0  0  0  0  0  0
   22.4520  -33.3079   -8.2447 N   0  0  0  0  0  0  0  0  0  0  0  0
   22.3104  -32.0260   -7.8728 C   0  0  0  0  0  0  0  0  0  0  0  0
   23.5374  -31.4868   -7.8403 N   0  0  0  0  0  0  0  0  0  0  0  0
   26.3457  -34.4761   -7.5992 C   0  0  0  0  0  0  0  0  0  0  0  0
   27.0137  -34.3676   -6.5263 O   0  0  0  0  0  0  0  0  0  0  0  0
   25.4575  -35.5236   -7.6519 O   0  0  0  0  0  0  0  0  0  0  0  0
  2  1  1  0
  3  2  2  0
  4  3  1  0
  5 11  1  0
  5  4  2  0
  6  5  1  0
  7  6  1  0
  7  8  1  6
  9  7  1  0
  9 10  2  0
 11 12  2  0
 12  2  1  0
 13 14  1  0
 14 15  2  0
 15 16  1  0
 17 18  1  0
 17 16  2  0
 19 20  1  0
 19 18  1  1
 20  9  1  0
 21 19  1  0
 22 21  2  0
 23 17  1  0
 24 23  2  0
 24 14  1  0
 25 21  1  0
 26 25  1  0
 26 27  1  1
 27 28  1  0
 28 29  2  0
 29 30  1  0
 31 30  1  0
 32 28  1  0
 32 31  2  0
 33 26  1  0
 33 35  1  0
 34 33  2  0
M  END
$$$$
