YYH.pdb
     RDKit          3D

 35 37  0  0  1  0  0  0  0  0999 V2000
   27.1998  -12.8107  -21.9572 O   0  0  0  0  0  0  0  0  0  0  0  0
   26.7408  -13.8962  -21.2133 C   0  0  0  0  0  0  0  0  0  0  0  0
   27.1142  -13.9795  -19.8884 C   0  0  0  0  0  0  0  0  0  0  0  0
   26.6925  -15.0315  -19.0957 C   0  0  0  0  0  0  0  0  0  0  0  0
   25.8893  -16.0178  -19.6185 C   0  0  0  0  0  0  0  0  0  0  0  0
   25.4519  -17.1340  -18.7472 C   0  0  0  0  0  0  0  0  0  0  0  0
   26.7019  -17.8889  -18.3333 C   0  0  2  0  0  0  0  0  0  0  0  0
   27.3196  -18.5661  -19.4456 N   0  0  0  0  0  0  0  0  0  0  0  0
   26.4495  -18.8558  -17.2499 C   0  0  0  0  0  0  0  0  0  0  0  0
   25.9019  -19.9745  -17.4279 O   0  0  0  0  0  0  0  0  0  0  0  0
   25.5250  -15.9138  -20.9565 C   0  0  0  0  0  0  0  0  0  0  0  0
   25.9415  -14.8720  -21.7447 C   0  0  0  0  0  0  0  0  0  0  0  0
   25.4809  -21.6178   -8.9405 O   0  0  0  0  0  0  0  0  0  0  0  0
   25.9228  -20.9862  -10.1104 C   0  0  0  0  0  0  0  0  0  0  0  0
   26.6048  -21.6375  -11.1005 C   0  0  0  0  0  0  0  0  0  0  0  0
   27.0423  -21.0210  -12.2543 C   0  0  0  0  0  0  0  0  0  0  0  0
   26.7604  -19.6757  -12.3842 C   0  0  0  0  0  0  0  0  0  0  0  0
   27.1705  -18.9011  -13.5643 C   0  0  0  0  0  0  0  0  0  0  0  0
   26.4152  -19.3515  -14.7795 C   0  0  2  0  0  0  0  0  0  0  0  0
   26.8294  -18.5540  -15.9021 N   0  0  0  0  0  0  0  0  0  0  0  0
   24.9586  -19.1542  -14.4864 C   0  0  0  0  0  0  0  0  0  0  0  0
   24.4609  -18.0056  -14.3984 O   0  0  0  0  0  0  0  0  0  0  0  0
   26.0655  -18.9865  -11.3882 C   0  0  0  0  0  0  0  0  0  0  0  0
   25.6485  -19.6498  -10.2507 C   0  0  0  0  0  0  0  0  0  0  0  0
   24.0895  -20.2553  -14.2979 N   0  0  0  0  0  0  0  0  0  0  0  0
   22.6789  -20.0513  -13.9209 C   0  0  1  0  0  0  0  0  0  0  0  0
   21.8599  -20.7432  -14.9789 C   0  0  0  0  0  0  0  0  0  0  0  0
   21.7640  -19.8865  -16.1702 C   0  0  0  0  0  0  0  0  0  0  0  0
   21.9132  -18.5235  -16.2161 C   0  0  0  0  0  0  0  0  0  0  0  0
   21.7170  -18.1368  -17.5101 N   0  0  0  0  0  0  0  0  0  0  0  0
   21.4530  -19.2258  -18.2489 C   0  0  0  0  0  0  0  0  0  0  0  0
   21.4847  -20.2807  -17.4221 N   0  0  0  0  0  0  0  0  0  0  0  0
   22.4001  -20.6610  -12.6096 C   0  0  0  0  0  0  0  0  0  0  0  0
   23.2074  -21.5439  -12.1880 O   0  0  0  0  0  0  0  0  0  0  0  0
   21.3428  -20.3676  -11.7818 O   0  0  0  0  0  0  0  0  0  0  0  0
  2  1  1  0
  3  2  2  0
  4  3  1  0
  5 11  1  0
  5  4  2  0
  6  5  1  0
  7  6  1  0
  7  8  1  6
  9  7  1  0
  9 10  2  0
 11 12  2  0
 12  2  1  0
 13 14  1  0
 14 15  2  0
 15 16  1  0
 17 18  1  0
 17 16  2  0
 19 20  1  0
 19 18  1  1
 20  9  1  0
 21 19  1  0
 22 21  2  0
 23 17  1  0
 24 23  2  0
 24 14  1  0
 25 21  1  0
 26 25  1  0
 26 27  1  6
 27 28  1  0
 28 29  2  0
 29 30  1  0
 31 30  1  0
 32 28  1  0
 32 31  2  0
 33 26  1  0
 33 35  1  0
 34 33  2  0
M  END
$$$$
