YYH.pdb
     RDKit          3D

 35 37  0  0  1  0  0  0  0  0999 V2000
   32.6873  -16.0206  -19.7765 O   0  0  0  0  0  0  0  0  0  0  0  0
   31.5341  -16.6788  -19.3531 C   0  0  0  0  0  0  0  0  0  0  0  0
   31.2705  -16.7212  -18.0001 C   0  0  0  0  0  0  0  0  0  0  0  0
   30.1430  -17.3586  -17.5151 C   0  0  0  0  0  0  0  0  0  0  0  0
   29.2608  -17.9643  -18.3788 C   0  0  0  0  0  0  0  0  0  0  0  0
   28.0605  -18.6406  -17.8326 C   0  0  0  0  0  0  0  0  0  0  0  0
   28.5314  -19.9392  -17.2038 C   0  0  2  0  0  0  0  0  0  0  0  0
   28.7825  -20.9597  -18.1902 N   0  0  0  0  0  0  0  0  0  0  0  0
   27.5907  -20.4556  -16.1933 C   0  0  0  0  0  0  0  0  0  0  0  0
   26.4855  -20.9859  -16.4768 O   0  0  0  0  0  0  0  0  0  0  0  0
   29.5462  -17.9094  -19.7387 C   0  0  0  0  0  0  0  0  0  0  0  0
   30.6632  -17.2782  -20.2224 C   0  0  0  0  0  0  0  0  0  0  0  0
   23.8521  -20.9916   -8.2406 O   0  0  0  0  0  0  0  0  0  0  0  0
   24.7589  -20.8731   -9.3020 C   0  0  0  0  0  0  0  0  0  0  0  0
   25.0277  -21.8916  -10.1738 C   0  0  0  0  0  0  0  0  0  0  0  0
   25.9193  -21.7808  -11.2205 C   0  0  0  0  0  0  0  0  0  0  0  0
   26.5563  -20.5647  -11.3668 C   0  0  0  0  0  0  0  0  0  0  0  0
   27.5289  -20.3155  -12.4405 C   0  0  0  0  0  0  0  0  0  0  0  0
   26.9683  -20.7339  -13.7674 C   0  0  2  0  0  0  0  0  0  0  0  0
   27.9042  -20.3734  -14.7980 N   0  0  0  0  0  0  0  0  0  0  0  0
   25.6689  -20.0072  -13.9414 C   0  0  0  0  0  0  0  0  0  0  0  0
   25.6289  -18.7566  -14.0365 O   0  0  0  0  0  0  0  0  0  0  0  0
   26.3002  -19.5080  -10.4905 C   0  0  0  0  0  0  0  0  0  0  0  0
   25.3978  -19.6696   -9.4574 C   0  0  0  0  0  0  0  0  0  0  0  0
   24.4384  -20.7037  -14.0048 N   0  0  0  0  0  0  0  0  0  0  0  0
   23.1570  -19.9757  -14.0438 C   0  0  1  0  0  0  0  0  0  0  0  0
   22.7727  -19.8849  -15.4974 C   0  0  0  0  0  0  0  0  0  0  0  0
   21.5308  -19.1095  -15.6341 C   0  0  0  0  0  0  0  0  0  0  0  0
   21.4182  -17.7439  -15.7015 C   0  0  0  0  0  0  0  0  0  0  0  0
   20.0888  -17.4502  -15.7960 N   0  0  0  0  0  0  0  0  0  0  0  0
   19.3933  -18.5981  -15.7874 C   0  0  0  0  0  0  0  0  0  0  0  0
   20.2818  -19.5971  -15.6886 N   0  0  0  0  0  0  0  0  0  0  0  0
   22.1181  -20.7165  -13.3084 C   0  0  0  0  0  0  0  0  0  0  0  0
   22.2429  -21.9759  -13.2231 O   0  0  0  0  0  0  0  0  0  0  0  0
   21.0128  -20.1782  -12.6938 O   0  0  0  0  0  0  0  0  0  0  0  0
  2  1  1  0
  3  2  2  0
  4  3  1  0
  5 11  1  0
  5  4  2  0
  6  5  1  0
  7  6  1  0
  7  8  1  6
  9  7  1  0
  9 10  2  0
 11 12  2  0
 12  2  1  0
 13 14  1  0
 14 15  2  0
 15 16  1  0
 17 18  1  0
 17 16  2  0
 19 20  1  0
 19 18  1  1
 20  9  1  0
 21 19  1  0
 22 21  2  0
 23 17  1  0
 24 23  2  0
 24 14  1  0
 25 21  1  0
 26 25  1  0
 26 27  1  6
 27 28  1  0
 28 29  2  0
 29 30  1  0
 31 30  1  0
 32 28  1  0
 32 31  2  0
 33 26  1  0
 33 35  1  0
 34 33  2  0
M  END
$$$$
