YYH.pdb
     RDKit          3D

 35 37  0  0  1  0  0  0  0  0999 V2000
   32.2691  -16.7678  -19.9909 O   0  0  0  0  0  0  0  0  0  0  0  0
   31.1871  -17.4797  -19.4762 C   0  0  0  0  0  0  0  0  0  0  0  0
   30.7302  -17.1466  -18.2184 C   0  0  0  0  0  0  0  0  0  0  0  0
   29.6605  -17.8146  -17.6506 C   0  0  0  0  0  0  0  0  0  0  0  0
   29.0310  -18.8279  -18.3347 C   0  0  0  0  0  0  0  0  0  0  0  0
   27.8873  -19.5275  -17.7031 C   0  0  0  0  0  0  0  0  0  0  0  0
   28.4686  -20.5479  -16.7415 C   0  0  2  0  0  0  0  0  0  0  0  0
   29.0526  -21.6711  -17.4304 N   0  0  0  0  0  0  0  0  0  0  0  0
   27.4799  -21.0339  -15.7623 C   0  0  0  0  0  0  0  0  0  0  0  0
   26.7312  -22.0253  -15.9615 O   0  0  0  0  0  0  0  0  0  0  0  0
   29.5082  -19.1472  -19.6013 C   0  0  0  0  0  0  0  0  0  0  0  0
   30.5684  -18.4866  -20.1667 C   0  0  0  0  0  0  0  0  0  0  0  0
   22.7070  -21.3126   -8.4064 O   0  0  0  0  0  0  0  0  0  0  0  0
   23.7107  -21.0289   -9.3419 C   0  0  0  0  0  0  0  0  0  0  0  0
   24.9213  -21.6642   -9.3564 C   0  0  0  0  0  0  0  0  0  0  0  0
   25.9131  -21.3891  -10.2747 C   0  0  0  0  0  0  0  0  0  0  0  0
   25.6361  -20.4161  -11.2143 C   0  0  0  0  0  0  0  0  0  0  0  0
   26.6067  -20.0284  -12.2480 C   0  0  0  0  0  0  0  0  0  0  0  0
   26.3833  -20.8176  -13.5039 C   0  0  2  0  0  0  0  0  0  0  0  0
   27.3231  -20.3770  -14.4991 N   0  0  0  0  0  0  0  0  0  0  0  0
   24.9736  -20.5546  -13.9401 C   0  0  0  0  0  0  0  0  0  0  0  0
   24.5902  -19.3992  -14.2450 O   0  0  0  0  0  0  0  0  0  0  0  0
   24.4079  -19.7519  -11.2220 C   0  0  0  0  0  0  0  0  0  0  0  0
   23.4470  -20.0641  -10.2802 C   0  0  0  0  0  0  0  0  0  0  0  0
   24.0218  -21.5987  -14.0245 N   0  0  0  0  0  0  0  0  0  0  0  0
   22.6188  -21.3180  -14.3798 C   0  0  1  0  0  0  0  0  0  0  0  0
   22.1238  -22.5344  -15.1176 C   0  0  0  0  0  0  0  0  0  0  0  0
   20.7310  -22.3248  -15.5402 C   0  0  0  0  0  0  0  0  0  0  0  0
   20.2857  -21.4462  -16.4951 C   0  0  0  0  0  0  0  0  0  0  0  0
   18.9265  -21.5576  -16.5471 N   0  0  0  0  0  0  0  0  0  0  0  0
   18.5360  -22.4777  -15.6513 C   0  0  0  0  0  0  0  0  0  0  0  0
   19.6421  -22.9348  -15.0475 N   0  0  0  0  0  0  0  0  0  0  0  0
   21.8078  -21.1177  -13.1669 C   0  0  0  0  0  0  0  0  0  0  0  0
   22.1061  -21.8007  -12.1405 O   0  0  0  0  0  0  0  0  0  0  0  0
   20.7477  -20.2539  -13.0279 O   0  0  0  0  0  0  0  0  0  0  0  0
  2  1  1  0
  3  2  2  0
  4  3  1  0
  5 11  1  0
  5  4  2  0
  6  5  1  0
  7  6  1  0
  7  8  1  6
  9  7  1  0
  9 10  2  0
 11 12  2  0
 12  2  1  0
 13 14  1  0
 14 15  2  0
 15 16  1  0
 17 18  1  0
 17 16  2  0
 19 20  1  0
 19 18  1  1
 20  9  1  0
 21 19  1  0
 22 21  2  0
 23 17  1  0
 24 23  2  0
 24 14  1  0
 25 21  1  0
 26 25  1  0
 26 27  1  1
 27 28  1  0
 28 29  2  0
 29 30  1  0
 31 30  1  0
 32 28  1  0
 32 31  2  0
 33 26  1  0
 33 35  1  0
 34 33  2  0
M  END
$$$$
