YYH.pdb
     RDKit          3D

 35 37  0  0  1  0  0  0  0  0999 V2000
   26.1511  -35.8910  -10.1290 O   0  0  0  0  0  0  0  0  0  0  0  0
   26.6728  -35.0180  -11.0820 C   0  0  0  0  0  0  0  0  0  0  0  0
   27.2581  -35.5597  -12.2071 C   0  0  0  0  0  0  0  0  0  0  0  0
   27.7945  -34.7482  -13.1902 C   0  0  0  0  0  0  0  0  0  0  0  0
   27.7529  -33.3797  -13.0617 C   0  0  0  0  0  0  0  0  0  0  0  0
   28.3351  -32.5333  -14.1297 C   0  0  0  0  0  0  0  0  0  0  0  0
   27.6316  -32.9048  -15.4223 C   0  0  2  0  0  0  0  0  0  0  0  0
   28.4368  -32.6122  -16.5814 N   0  0  0  0  0  0  0  0  0  0  0  0
   26.3171  -32.2529  -15.5618 C   0  0  0  0  0  0  0  0  0  0  0  0
   26.1618  -31.0849  -16.0032 O   0  0  0  0  0  0  0  0  0  0  0  0
   27.1581  -32.8551  -11.9194 C   0  0  0  0  0  0  0  0  0  0  0  0
   26.6255  -33.6572  -10.9431 C   0  0  0  0  0  0  0  0  0  0  0  0
   18.2354  -30.2302  -17.3829 O   0  0  0  0  0  0  0  0  0  0  0  0
   19.4982  -30.8091  -17.2014 C   0  0  0  0  0  0  0  0  0  0  0  0
   20.6680  -30.1222  -17.3728 C   0  0  0  0  0  0  0  0  0  0  0  0
   21.9140  -30.6868  -17.1956 C   0  0  0  0  0  0  0  0  0  0  0  0
   21.9456  -32.0167  -16.8258 C   0  0  0  0  0  0  0  0  0  0  0  0
   23.2078  -32.7371  -16.6051 C   0  0  0  0  0  0  0  0  0  0  0  0
   23.8138  -32.3484  -15.2891 C   0  0  2  0  0  0  0  0  0  0  0  0
   25.1190  -32.9435  -15.1884 N   0  0  0  0  0  0  0  0  0  0  0  0
   22.9015  -32.8658  -14.2183 C   0  0  0  0  0  0  0  0  0  0  0  0
   22.7091  -34.0963  -14.0641 O   0  0  0  0  0  0  0  0  0  0  0  0
   20.7660  -32.7414  -16.6440 C   0  0  0  0  0  0  0  0  0  0  0  0
   19.5423  -32.1297  -16.8340 C   0  0  0  0  0  0  0  0  0  0  0  0
   22.2227  -31.9868  -13.3409 N   0  0  0  0  0  0  0  0  0  0  0  0
   21.3951  -32.5074  -12.2375 C   0  0  1  0  0  0  0  0  0  0  0  0
   21.2337  -31.3692  -11.2641 C   0  0  0  0  0  0  0  0  0  0  0  0
   22.4623  -31.2181  -10.4704 C   0  0  0  0  0  0  0  0  0  0  0  0
   23.5511  -32.0527  -10.4749 C   0  0  0  0  0  0  0  0  0  0  0  0
   24.4475  -31.5556   -9.5739 N   0  0  0  0  0  0  0  0  0  0  0  0
   23.9330  -30.4447   -9.0237 C   0  0  0  0  0  0  0  0  0  0  0  0
   22.7274  -30.2521   -9.5775 N   0  0  0  0  0  0  0  0  0  0  0  0
   20.0708  -32.9189  -12.7331 C   0  0  0  0  0  0  0  0  0  0  0  0
   19.4349  -32.0986  -13.4623 O   0  0  0  0  0  0  0  0  0  0  0  0
   19.4437  -34.1170  -12.4869 O   0  0  0  0  0  0  0  0  0  0  0  0
  2  1  1  0
  3  2  2  0
  4  3  1  0
  5 11  1  0
  5  4  2  0
  6  5  1  0
  7  6  1  0
  7  8  1  6
  9  7  1  0
  9 10  2  0
 11 12  2  0
 12  2  1  0
 13 14  1  0
 14 15  2  0
 15 16  1  0
 17 18  1  0
 17 16  2  0
 19 20  1  0
 19 18  1  6
 20  9  1  0
 21 19  1  0
 22 21  2  0
 23 17  1  0
 24 23  2  0
 24 14  1  0
 25 21  1  0
 26 25  1  0
 26 27  1  1
 27 28  1  0
 28 29  2  0
 29 30  1  0
 31 30  1  0
 32 28  1  0
 32 31  2  0
 33 26  1  0
 33 35  1  0
 34 33  2  0
M  END
$$$$
