YKI.pdb
     RDKit          3D

 30 30  0  0  1  0  0  0  0  0999 V2000
   18.5719  -18.2500  -15.2906 O   0  0  0  0  0  0  0  0  0  0  0  0
   19.5254  -18.7710  -14.4373 C   0  0  0  0  0  0  0  0  0  0  0  0
   19.2312  -19.7427  -13.5027 C   0  0  0  0  0  0  0  0  0  0  0  0
   20.2068  -20.2371  -12.6707 C   0  0  0  0  0  0  0  0  0  0  0  0
   21.5016  -19.7920  -12.7312 C   0  0  0  0  0  0  0  0  0  0  0  0
   22.5541  -20.3418  -11.8053 C   0  0  0  0  0  0  0  0  0  0  0  0
   23.7162  -20.8800  -12.6562 C   0  0  2  0  0  0  0  0  0  0  0  0
   23.2424  -22.0545  -13.3252 N   0  0  0  0  0  0  0  0  0  0  0  0
   24.8772  -21.1780  -11.7806 C   0  0  0  0  0  0  0  0  0  0  0  0
   24.7295  -22.0953  -10.9140 O   0  0  0  0  0  0  0  0  0  0  0  0
   21.8064  -18.8237  -13.6586 C   0  0  0  0  0  0  0  0  0  0  0  0
   20.8248  -18.3258  -14.4964 C   0  0  0  0  0  0  0  0  0  0  0  0
   26.0963  -20.4651  -11.9146 N   0  0  0  0  0  0  0  0  0  0  0  0
   27.1706  -20.6198  -10.9831 C   0  0  1  0  0  0  0  0  0  0  0  0
   28.4367  -19.9152  -11.4617 C   0  0  0  0  0  0  0  0  0  0  0  0
   29.6187  -20.2547  -10.6019 C   0  0  0  0  0  0  0  0  0  0  0  0
   30.1763  -21.5879  -11.0648 C   0  0  0  0  0  0  0  0  0  0  0  0
   31.4074  -21.9644  -10.2524 C   0  0  0  0  0  0  0  0  0  0  0  0
   31.9112  -23.2242  -10.7188 N   0  0  0  0  0  0  0  0  0  0  0  0
   26.8400  -20.1675   -9.6231 C   0  0  0  0  0  0  0  0  0  0  0  0
   26.1679  -19.0954   -9.4696 O   0  0  0  0  0  0  0  0  0  0  0  0
   29.8386  -20.3617   -4.7908 C   0  0  0  0  0  0  0  0  0  0  0  0
   29.2204  -20.3869   -6.1510 C   0  0  0  0  0  0  0  0  0  0  0  0
   27.7784  -20.8374   -6.0393 C   0  0  2  0  0  0  0  0  0  0  0  0
   27.6400  -22.3262   -6.2075 C   0  0  0  0  0  0  0  0  0  0  0  0
   26.9474  -20.1855   -7.1527 C   0  0  2  0  0  0  0  0  0  0  0  0
   27.2053  -20.8295   -8.4201 N   0  0  0  0  0  0  0  0  0  0  0  0
   27.3927  -18.7807   -7.2398 C   0  0  0  0  0  0  0  0  0  0  0  0
   27.0482  -17.9071   -6.3888 O   0  0  0  0  0  0  0  0  0  0  0  0
   28.2151  -18.3950   -8.2832 O   0  0  0  0  0  0  0  0  0  0  0  0
  2  1  1  0
  3  2  2  0
  4  3  1  0
  5 11  1  0
  5  4  2  0
  6  5  1  0
  7  6  1  0
  7  8  1  1
  9  7  1  0
 10  9  2  0
 11 12  2  0
 12  2  1  0
 13  9  1  0
 14 13  1  0
 14 15  1  6
 16 15  1  0
 17 16  1  0
 18 17  1  0
 19 18  1  0
 20 14  1  0
 20 27  1  0
 21 20  2  0
 22 23  1  0
 23 24  1  0
 24 25  1  6
 26 27  1  6
 26 24  1  0
 26 28  1  0
 28 29  2  0
 28 30  1  0
M  END
$$$$
