YKI.pdb
     RDKit          3D

 30 30  0  0  1  0  0  0  0  0999 V2000
   17.7682  -16.5300  -14.7440 O   0  0  0  0  0  0  0  0  0  0  0  0
   18.6276  -17.2751  -13.9598 C   0  0  0  0  0  0  0  0  0  0  0  0
   19.9996  -17.1986  -14.0858 C   0  0  0  0  0  0  0  0  0  0  0  0
   20.8229  -17.9557  -13.2873 C   0  0  0  0  0  0  0  0  0  0  0  0
   20.3235  -18.8114  -12.3404 C   0  0  0  0  0  0  0  0  0  0  0  0
   21.2430  -19.6375  -11.4805 C   0  0  0  0  0  0  0  0  0  0  0  0
   21.9459  -20.6716  -12.3752 C   0  0  2  0  0  0  0  0  0  0  0  0
   21.0057  -21.7224  -12.6268 N   0  0  0  0  0  0  0  0  0  0  0  0
   23.1625  -21.1762  -11.6907 C   0  0  0  0  0  0  0  0  0  0  0  0
   22.9991  -22.0675  -10.8000 O   0  0  0  0  0  0  0  0  0  0  0  0
   18.9577  -18.8961  -12.2060 C   0  0  0  0  0  0  0  0  0  0  0  0
   18.1287  -18.1342  -13.0093 C   0  0  0  0  0  0  0  0  0  0  0  0
   24.4487  -20.6801  -12.0250 N   0  0  0  0  0  0  0  0  0  0  0  0
   25.6360  -21.1651  -11.3916 C   0  0  1  0  0  0  0  0  0  0  0  0
   26.8213  -21.1788  -12.3524 C   0  0  0  0  0  0  0  0  0  0  0  0
   28.0281  -21.8217  -11.7346 C   0  0  0  0  0  0  0  0  0  0  0  0
   29.1726  -21.7379  -12.7275 C   0  0  0  0  0  0  0  0  0  0  0  0
   30.4002  -22.4613  -12.1919 C   0  0  0  0  0  0  0  0  0  0  0  0
   31.3820  -22.5559  -13.2338 N   0  0  0  0  0  0  0  0  0  0  0  0
   25.9980  -20.4237  -10.1739 C   0  0  0  0  0  0  0  0  0  0  0  0
   25.8107  -19.1636  -10.1333 O   0  0  0  0  0  0  0  0  0  0  0  0
   27.4244  -20.6706   -4.3885 C   0  0  0  0  0  0  0  0  0  0  0  0
   27.9178  -19.9907   -5.6243 C   0  0  0  0  0  0  0  0  0  0  0  0
   27.6760  -20.8869   -6.8215 C   0  0  2  0  0  0  0  0  0  0  0  0
   28.9615  -21.2859   -7.4938 C   0  0  0  0  0  0  0  0  0  0  0  0
   26.8424  -20.1347   -7.8678 C   0  0  2  0  0  0  0  0  0  0  0  0
   26.5536  -20.9906   -8.9955 N   0  0  0  0  0  0  0  0  0  0  0  0
   27.6736  -19.0073   -8.3339 C   0  0  0  0  0  0  0  0  0  0  0  0
   27.6836  -17.8848   -7.7457 O   0  0  0  0  0  0  0  0  0  0  0  0
   28.4730  -19.1723   -9.4509 O   0  0  0  0  0  0  0  0  0  0  0  0
  2  1  1  0
  3  2  2  0
  4  3  1  0
  5 11  1  0
  5  4  2  0
  6  5  1  0
  7  6  1  0
  7  8  1  1
  9  7  1  0
 10  9  2  0
 11 12  2  0
 12  2  1  0
 13  9  1  0
 14 13  1  0
 14 15  1  6
 16 15  1  0
 17 16  1  0
 18 17  1  0
 19 18  1  0
 20 14  1  0
 20 27  1  0
 21 20  2  0
 22 23  1  0
 23 24  1  0
 24 25  1  6
 26 27  1  6
 26 24  1  0
 26 28  1  0
 28 29  2  0
 28 30  1  0
M  END
$$$$
