YKI.pdb
     RDKit          3D

 30 30  0  0  1  0  0  0  0  0999 V2000
   27.2257  -10.3876  -16.6033 O   0  0  0  0  0  0  0  0  0  0  0  0
   26.9308  -11.6738  -16.1941 C   0  0  0  0  0  0  0  0  0  0  0  0
   27.8750  -12.6800  -16.1757 C   0  0  0  0  0  0  0  0  0  0  0  0
   27.5441  -13.9480  -15.7620 C   0  0  0  0  0  0  0  0  0  0  0  0
   26.2752  -14.2666  -15.3535 C   0  0  0  0  0  0  0  0  0  0  0  0
   25.9317  -15.6641  -14.9106 C   0  0  0  0  0  0  0  0  0  0  0  0
   25.8752  -16.5674  -16.1535 C   0  0  2  0  0  0  0  0  0  0  0  0
   24.6881  -16.2198  -16.8757 N   0  0  0  0  0  0  0  0  0  0  0  0
   25.8649  -17.9911  -15.7336 C   0  0  0  0  0  0  0  0  0  0  0  0
   24.7944  -18.4339  -15.2117 O   0  0  0  0  0  0  0  0  0  0  0  0
   25.3260  -13.2719  -15.3677 C   0  0  0  0  0  0  0  0  0  0  0  0
   25.6586  -11.9955  -15.7840 C   0  0  0  0  0  0  0  0  0  0  0  0
   27.0056  -18.8148  -15.9134 N   0  0  0  0  0  0  0  0  0  0  0  0
   27.0204  -20.1870  -15.5098 C   0  0  1  0  0  0  0  0  0  0  0  0
   28.2024  -20.9391  -16.1145 C   0  0  0  0  0  0  0  0  0  0  0  0
   28.2809  -22.3488  -15.6065 C   0  0  0  0  0  0  0  0  0  0  0  0
   27.2845  -23.1901  -16.3825 C   0  0  0  0  0  0  0  0  0  0  0  0
   27.3398  -24.6415  -15.9268 C   0  0  0  0  0  0  0  0  0  0  0  0
   26.3300  -25.3902  -16.6184 N   0  0  0  0  0  0  0  0  0  0  0  0
   27.0144  -20.3713  -14.0505 C   0  0  0  0  0  0  0  0  0  0  0  0
   27.9544  -19.8640  -13.3550 O   0  0  0  0  0  0  0  0  0  0  0  0
   26.2275  -19.6018   -8.7761 C   0  0  0  0  0  0  0  0  0  0  0  0
   25.7208  -20.7636   -9.5676 C   0  0  0  0  0  0  0  0  0  0  0  0
   25.5688  -20.3552  -11.0184 C   0  0  2  0  0  0  0  0  0  0  0  0
   24.1262  -20.3198  -11.4442 C   0  0  0  0  0  0  0  0  0  0  0  0
   26.2725  -21.3801  -11.9183 C   0  0  2  0  0  0  0  0  0  0  0  0
   26.0306  -21.0812  -13.3110 N   0  0  0  0  0  0  0  0  0  0  0  0
   25.6719  -22.6924  -11.6078 C   0  0  0  0  0  0  0  0  0  0  0  0
   25.8534  -23.2743  -10.4967 O   0  0  0  0  0  0  0  0  0  0  0  0
   24.8817  -23.3165  -12.5564 O   0  0  0  0  0  0  0  0  0  0  0  0
  2  1  1  0
  3  2  2  0
  4  3  1  0
  5 11  1  0
  5  4  2  0
  6  5  1  0
  7  6  1  0
  7  8  1  1
  9  7  1  0
 10  9  2  0
 11 12  2  0
 12  2  1  0
 13  9  1  0
 14 13  1  0
 14 15  1  1
 16 15  1  0
 17 16  1  0
 18 17  1  0
 19 18  1  0
 20 14  1  0
 20 27  1  0
 21 20  2  0
 22 23  1  0
 23 24  1  0
 24 25  1  6
 26 27  1  6
 26 24  1  0
 26 28  1  0
 28 29  2  0
 28 30  1  0
M  END
$$$$
