YKI.pdb
     RDKit          3D

 30 30  0  0  1  0  0  0  0  0999 V2000
   22.8503  -21.9954   -7.0277 O   0  0  0  0  0  0  0  0  0  0  0  0
   23.3657  -21.5427   -8.2270 C   0  0  0  0  0  0  0  0  0  0  0  0
   22.5674  -21.2584   -9.3161 C   0  0  0  0  0  0  0  0  0  0  0  0
   23.1166  -20.8097  -10.4931 C   0  0  0  0  0  0  0  0  0  0  0  0
   24.4673  -20.6265  -10.6365 C   0  0  0  0  0  0  0  0  0  0  0  0
   25.0496  -20.1407  -11.9374 C   0  0  0  0  0  0  0  0  0  0  0  0
   24.6266  -21.1121  -13.0516 C   0  0  2  0  0  0  0  0  0  0  0  0
   25.6648  -22.0908  -13.1766 N   0  0  0  0  0  0  0  0  0  0  0  0
   24.4253  -20.3612  -14.3161 C   0  0  0  0  0  0  0  0  0  0  0  0
   25.4382  -20.2101  -15.0682 O   0  0  0  0  0  0  0  0  0  0  0  0
   25.2727  -20.9068   -9.5580 C   0  0  0  0  0  0  0  0  0  0  0  0
   24.7203  -21.3584   -8.3730 C   0  0  0  0  0  0  0  0  0  0  0  0
   23.1523  -19.8402  -14.6626 N   0  0  0  0  0  0  0  0  0  0  0  0
   22.9197  -19.1726  -15.9061 C   0  0  1  0  0  0  0  0  0  0  0  0
   21.4505  -19.2362  -16.3132 C   0  0  0  0  0  0  0  0  0  0  0  0
   21.2135  -18.5740  -17.6386 C   0  0  0  0  0  0  0  0  0  0  0  0
   19.7420  -18.7121  -17.9829 C   0  0  0  0  0  0  0  0  0  0  0  0
   19.4428  -18.0598  -19.3254 C   0  0  0  0  0  0  0  0  0  0  0  0
   18.0399  -18.1764  -19.6025 N   0  0  0  0  0  0  0  0  0  0  0  0
   23.3732  -17.7734  -15.9165 C   0  0  0  0  0  0  0  0  0  0  0  0
   22.9502  -16.9751  -15.0174 O   0  0  0  0  0  0  0  0  0  0  0  0
   26.7304  -13.6404  -15.2044 C   0  0  0  0  0  0  0  0  0  0  0  0
   26.4803  -14.1646  -16.5812 C   0  0  0  0  0  0  0  0  0  0  0  0
   26.1137  -15.6322  -16.5013 C   0  0  2  0  0  0  0  0  0  0  0  0
   26.8245  -16.4470  -17.5476 C   0  0  0  0  0  0  0  0  0  0  0  0
   24.6092  -15.8017  -16.7526 C   0  0  2  0  0  0  0  0  0  0  0  0
   24.2685  -17.2017  -16.8601 N   0  0  0  0  0  0  0  0  0  0  0  0
   24.3242  -15.1478  -18.0451 C   0  0  0  0  0  0  0  0  0  0  0  0
   24.2899  -15.7911  -19.1364 O   0  0  0  0  0  0  0  0  0  0  0  0
   24.0847  -13.7856  -18.0760 O   0  0  0  0  0  0  0  0  0  0  0  0
  2  1  1  0
  3  2  2  0
  4  3  1  0
  5 11  1  0
  5  4  2  0
  6  5  1  0
  7  6  1  0
  7  8  1  6
  9  7  1  0
 10  9  2  0
 11 12  2  0
 12  2  1  0
 13  9  1  0
 14 13  1  0
 14 15  1  1
 16 15  1  0
 17 16  1  0
 18 17  1  0
 19 18  1  0
 20 14  1  0
 20 27  1  0
 21 20  2  0
 22 23  1  0
 23 24  1  0
 24 25  1  6
 26 27  1  6
 26 24  1  0
 26 28  1  0
 28 29  2  0
 28 30  1  0
M  END
$$$$
