YKI.pdb
     RDKit          3D

 30 30  0  0  1  0  0  0  0  0999 V2000
   20.3803  -12.2370  -18.6190 O   0  0  0  0  0  0  0  0  0  0  0  0
   20.8308  -13.3730  -17.9744 C   0  0  0  0  0  0  0  0  0  0  0  0
   19.9786  -14.2454  -17.3288 C   0  0  0  0  0  0  0  0  0  0  0  0
   20.4639  -15.3659  -16.6983 C   0  0  0  0  0  0  0  0  0  0  0  0
   21.8016  -15.6637  -16.6826 C   0  0  0  0  0  0  0  0  0  0  0  0
   22.3136  -16.8929  -15.9796 C   0  0  0  0  0  0  0  0  0  0  0  0
   22.7962  -17.8943  -17.0419 C   0  0  2  0  0  0  0  0  0  0  0  0
   21.6351  -18.3752  -17.7287 N   0  0  0  0  0  0  0  0  0  0  0  0
   23.5406  -18.9971  -16.3839 C   0  0  0  0  0  0  0  0  0  0  0  0
   22.8662  -19.8144  -15.6828 O   0  0  0  0  0  0  0  0  0  0  0  0
   22.6603  -14.8013  -17.3225 C   0  0  0  0  0  0  0  0  0  0  0  0
   22.1723  -13.6735  -17.9573 C   0  0  0  0  0  0  0  0  0  0  0  0
   24.9448  -19.1262  -16.5388 N   0  0  0  0  0  0  0  0  0  0  0  0
   25.6786  -20.1949  -15.9344 C   0  0  1  0  0  0  0  0  0  0  0  0
   26.9510  -20.5153  -16.7132 C   0  0  0  0  0  0  0  0  0  0  0  0
   27.6956  -21.6690  -16.1082 C   0  0  0  0  0  0  0  0  0  0  0  0
   28.9455  -21.9136  -16.9331 C   0  0  0  0  0  0  0  0  0  0  0  0
   29.7206  -23.1059  -16.3900 C   0  0  0  0  0  0  0  0  0  0  0  0
   30.9839  -23.1922  -17.0645 N   0  0  0  0  0  0  0  0  0  0  0  0
   26.0133  -19.9541  -14.5225 C   0  0  0  0  0  0  0  0  0  0  0  0
   26.6169  -18.8786  -14.2003 O   0  0  0  0  0  0  0  0  0  0  0  0
   24.6124  -20.9098   -8.6671 C   0  0  0  0  0  0  0  0  0  0  0  0
   25.6374  -20.5244   -9.6839 C   0  0  0  0  0  0  0  0  0  0  0  0
   25.1129  -20.8381  -11.0700 C   0  0  2  0  0  0  0  0  0  0  0  0
   24.7975  -22.3000  -11.2341 C   0  0  0  0  0  0  0  0  0  0  0  0
   26.1827  -20.4944  -12.1154 C   0  0  2  0  0  0  0  0  0  0  0  0
   25.7197  -20.8294  -13.4424 N   0  0  0  0  0  0  0  0  0  0  0  0
   27.3581  -21.3309  -11.8024 C   0  0  0  0  0  0  0  0  0  0  0  0
   28.1272  -21.0802  -10.8269 O   0  0  0  0  0  0  0  0  0  0  0  0
   27.6379  -22.4289  -12.5961 O   0  0  0  0  0  0  0  0  0  0  0  0
  2  1  1  0
  3  2  2  0
  4  3  1  0
  5 11  1  0
  5  4  2  0
  6  5  1  0
  7  6  1  0
  7  8  1  1
  9  7  1  0
 10  9  2  0
 11 12  2  0
 12  2  1  0
 13  9  1  0
 14 13  1  0
 14 15  1  6
 16 15  1  0
 17 16  1  0
 18 17  1  0
 19 18  1  0
 20 14  1  0
 20 27  1  0
 21 20  2  0
 22 23  1  0
 23 24  1  0
 24 25  1  1
 26 27  1  6
 26 24  1  0
 26 28  1  0
 28 29  2  0
 28 30  1  0
M  END
$$$$
