RIA.pdb
     RDKit          3D

 25 24  0  0  1  0  0  0  0  0999 V2000
    9.4902  -21.4263   19.9676 N   0  0  0  0  0  0  0  0  0  0  0  0
    8.9801  -20.8642   18.7389 C   0  0  0  0  0  0  0  0  0  0  0  0
    8.5559  -21.6553   17.8134 N   0  0  0  0  0  0  0  0  0  0  0  0
    8.9382  -19.4712   18.5298 N   0  0  0  0  0  0  0  0  0  0  0  0
    9.4956  -18.5251   19.5161 C   0  0  0  0  0  0  0  0  0  0  0  0
    8.4867  -18.3539   20.6072 C   0  0  0  0  0  0  0  0  0  0  0  0
    8.8890  -17.5077   21.7650 C   0  0  0  0  0  0  0  0  0  0  0  0
    8.7515  -16.0250   21.5818 C   0  0  2  0  0  0  0  0  0  0  0  0
    9.6904  -15.5777   20.5822 N   0  0  0  0  0  0  0  0  0  0  0  0
    9.0964  -15.3292   22.8708 C   0  0  0  0  0  0  0  0  0  0  0  0
   10.2887  -15.1658   23.1902 O   0  0  0  0  0  0  0  0  0  0  0  0
    8.1860  -21.3632   16.8917 C   0  0  0  0  0  0  0  0  0  0  0  0
    6.7804  -11.4334   27.1812 C   0  0  0  0  0  0  0  0  0  0  0  0
    7.7702  -12.4309   26.7010 C   0  0  2  0  0  0  0  0  0  0  0  0
    7.4158  -13.1889   25.4699 C   0  0  0  0  0  0  0  0  0  0  0  0
    5.9968  -13.7071   25.4805 C   0  0  2  0  0  0  0  0  0  0  0  0
    8.4300  -14.2069   25.0223 N   0  0  0  0  0  0  0  0  0  0  0  0
    8.0867  -14.8383   23.7621 C   0  0  0  0  0  0  0  0  0  0  0  0
    8.5894  -15.2068   26.1045 O   0  0  0  0  0  0  0  0  0  0  0  0
    7.6370  -15.9474   26.4773 C   0  0  0  0  0  0  0  0  0  0  0  0
   11.5223  -16.8854   27.4064 C   0  0  2  0  0  0  0  0  0  0  0  0
   10.1201  -16.3559   27.7431 N   0  0  0  0  0  0  0  0  0  0  0  0
    9.8383  -15.3472   26.7450 C   0  0  0  0  0  0  0  0  0  0  0  0
   10.1956  -15.8105   29.1106 O   0  0  0  0  0  0  0  0  0  0  0  0
   10.3914  -16.5228   30.1240 O   0  0  0  0  0  0  0  0  0  0  0  0
  1  2  1  0
  2  3  2  0
  4  5  1  0
  4  2  1  0
  6  7  1  0
  6  5  1  0
  8  7  1  0
  8  9  1  6
  8 10  1  0
 10 11  2  0
 13 12  1  0
 14 13  1  0
 14 15  1  6
 16 14  1  0
 16 17  1  1
 17 10  1  0
 18 19  2  0
 18 16  1  0
 21 20  1  6
 21 22  1  0
 22 18  1  0
 23 25  1  0
 23 21  1  0
 24 23  2  0
M  END
$$$$
