RIA.pdb
     RDKit          3D

 25 24  0  0  1  0  0  0  0  0999 V2000
    8.6048  -16.3999   16.4846 N   0  0  0  0  0  0  0  0  0  0  0  0
    7.6962  -15.4777   15.8443 C   0  0  0  0  0  0  0  0  0  0  0  0
    7.2458  -15.7528   14.6679 N   0  0  0  0  0  0  0  0  0  0  0  0
    7.2938  -14.2844   16.4767 N   0  0  0  0  0  0  0  0  0  0  0  0
    7.8590  -13.8701   17.7756 C   0  0  0  0  0  0  0  0  0  0  0  0
    7.5410  -14.9373   18.7745 C   0  0  0  0  0  0  0  0  0  0  0  0
    8.1344  -14.7827   20.1319 C   0  0  0  0  0  0  0  0  0  0  0  0
    7.7821  -13.5249   20.8700 C   0  0  2  0  0  0  0  0  0  0  0  0
    8.4188  -12.4003   20.2291 N   0  0  0  0  0  0  0  0  0  0  0  0
    8.3139  -13.6059   22.2755 C   0  0  0  0  0  0  0  0  0  0  0  0
    9.5099  -13.3461   22.5043 O   0  0  0  0  0  0  0  0  0  0  0  0
    6.5897  -15.1684   14.1205 C   0  0  0  0  0  0  0  0  0  0  0  0
    5.7076  -11.6068   26.5066 C   0  0  0  0  0  0  0  0  0  0  0  0
    6.7612  -12.1398   25.6060 C   0  0  2  0  0  0  0  0  0  0  0  0
    7.1432  -13.5666   25.7907 C   0  0  0  0  0  0  0  0  0  0  0  0
    7.6083  -13.8791   27.1936 C   0  0  2  0  0  0  0  0  0  0  0  0
    8.0247  -14.1448   24.7165 N   0  0  0  0  0  0  0  0  0  0  0  0
    7.4815  -13.9779   23.3817 C   0  0  0  0  0  0  0  0  0  0  0  0
    8.2602  -15.5737   25.0317 O   0  0  0  0  0  0  0  0  0  0  0  0
    7.3129  -16.3659   25.2958 C   0  0  0  0  0  0  0  0  0  0  0  0
   11.3465  -17.6474   24.8241 C   0  0  2  0  0  0  0  0  0  0  0  0
    9.9087  -17.4555   25.3300 N   0  0  0  0  0  0  0  0  0  0  0  0
    9.5776  -16.0777   25.0386 C   0  0  0  0  0  0  0  0  0  0  0  0
    9.9298  -17.7519   26.7739 O   0  0  0  0  0  0  0  0  0  0  0  0
    9.8321  -16.8677   27.6578 O   0  0  0  0  0  0  0  0  0  0  0  0
  1  2  1  0
  2  3  2  0
  4  5  1  0
  4  2  1  0
  6  7  1  0
  6  5  1  0
  8  7  1  0
  8  9  1  6
  8 10  1  0
 10 11  2  0
 13 12  1  0
 14 13  1  0
 14 15  1  6
 16 14  1  0
 16 17  1  6
 17 10  1  0
 18 19  2  0
 18 16  1  0
 21 20  1  6
 21 22  1  0
 22 18  1  0
 23 25  1  0
 23 21  1  0
 24 23  2  0
M  END
$$$$
