RIA.pdb
     RDKit          3D

 25 24  0  0  1  0  0  0  0  0999 V2000
    7.6043  -14.3640   16.7501 N   0  0  0  0  0  0  0  0  0  0  0  0
    8.1666  -13.9075   17.9997 C   0  0  0  0  0  0  0  0  0  0  0  0
    8.2898  -12.6412   18.2089 N   0  0  0  0  0  0  0  0  0  0  0  0
    8.5846  -14.8158   18.9927 N   0  0  0  0  0  0  0  0  0  0  0  0
    8.3825  -16.2702   18.8435 C   0  0  0  0  0  0  0  0  0  0  0  0
    7.9494  -16.8106   20.1693 C   0  0  0  0  0  0  0  0  0  0  0  0
    8.8770  -16.5979   21.3151 C   0  0  0  0  0  0  0  0  0  0  0  0
    8.2621  -16.6422   22.6829 C   0  0  2  0  0  0  0  0  0  0  0  0
    6.8294  -16.5203   22.5671 N   0  0  0  0  0  0  0  0  0  0  0  0
    8.7528  -15.4697   23.4885 C   0  0  0  0  0  0  0  0  0  0  0  0
    9.6385  -14.7255   23.0283 O   0  0  0  0  0  0  0  0  0  0  0  0
    8.7135  -12.2059   19.0471 C   0  0  0  0  0  0  0  0  0  0  0  0
    5.2846  -12.3589   26.2505 C   0  0  0  0  0  0  0  0  0  0  0  0
    6.4897  -12.8148   25.5122 C   0  0  2  0  0  0  0  0  0  0  0  0
    7.6171  -13.3426   26.3284 C   0  0  0  0  0  0  0  0  0  0  0  0
    8.1282  -12.3498   27.3458 C   0  0  2  0  0  0  0  0  0  0  0  0
    8.7073  -14.0346   25.5551 N   0  0  0  0  0  0  0  0  0  0  0  0
    8.2306  -15.1710   24.7897 C   0  0  0  0  0  0  0  0  0  0  0  0
    9.7703  -14.4303   26.5090 O   0  0  0  0  0  0  0  0  0  0  0  0
   10.6959  -13.6399   26.8456 C   0  0  0  0  0  0  0  0  0  0  0  0
   10.6231  -15.3383   29.2444 C   0  0  2  0  0  0  0  0  0  0  0  0
   10.7622  -16.2121   27.9887 N   0  0  0  0  0  0  0  0  0  0  0  0
    9.7589  -15.7259   27.0668 C   0  0  0  0  0  0  0  0  0  0  0  0
   10.5271  -17.6027   28.4180 O   0  0  0  0  0  0  0  0  0  0  0  0
    9.5655  -18.2949   28.0070 O   0  0  0  0  0  0  0  0  0  0  0  0
  1  2  1  0
  2  3  2  0
  4  5  1  0
  4  2  1  0
  6  7  1  0
  6  5  1  0
  8  7  1  0
  8  9  1  6
  8 10  1  0
 10 11  2  0
 13 12  1  0
 14 13  1  0
 14 15  1  1
 16 14  1  0
 16 17  1  6
 17 10  1  0
 18 19  2  0
 18 16  1  0
 21 20  1  6
 21 22  1  0
 22 18  1  0
 23 25  1  0
 23 21  1  0
 24 23  2  0
M  END
$$$$
