RIA.pdb
     RDKit          3D

 25 24  0  0  1  0  0  0  0  0999 V2000
   13.7147  -19.0476   20.7765 N   0  0  0  0  0  0  0  0  0  0  0  0
   12.7420  -20.0599   21.1154 C   0  0  0  0  0  0  0  0  0  0  0  0
   13.1301  -21.1249   21.7298 N   0  0  0  0  0  0  0  0  0  0  0  0
   11.3798  -19.9091   20.7874 N   0  0  0  0  0  0  0  0  0  0  0  0
   10.8423  -18.6274   20.2909 C   0  0  0  0  0  0  0  0  0  0  0  0
   10.9686  -17.6212   21.3906 C   0  0  0  0  0  0  0  0  0  0  0  0
   10.5069  -16.2375   21.0891 C   0  0  0  0  0  0  0  0  0  0  0  0
    9.1177  -15.8901   21.5367 C   0  0  2  0  0  0  0  0  0  0  0  0
    8.4150  -15.2432   20.4557 N   0  0  0  0  0  0  0  0  0  0  0  0
    9.1915  -14.9124   22.6783 C   0  0  0  0  0  0  0  0  0  0  0  0
    9.8164  -13.8441   22.5433 O   0  0  0  0  0  0  0  0  0  0  0  0
   12.5184  -21.9006   22.0393 C   0  0  0  0  0  0  0  0  0  0  0  0
    6.0417  -11.8703   26.7094 C   0  0  0  0  0  0  0  0  0  0  0  0
    7.3385  -12.5150   26.3810 C   0  0  2  0  0  0  0  0  0  0  0  0
    7.2980  -13.6553   25.4251 C   0  0  0  0  0  0  0  0  0  0  0  0
    6.2808  -14.7074   25.7999 C   0  0  2  0  0  0  0  0  0  0  0  0
    8.6374  -14.2190   25.0330 N   0  0  0  0  0  0  0  0  0  0  0  0
    8.5586  -15.1683   23.9389 C   0  0  0  0  0  0  0  0  0  0  0  0
    9.2525  -14.8276   26.2362 O   0  0  0  0  0  0  0  0  0  0  0  0
    8.9508  -15.9898   26.6272 C   0  0  0  0  0  0  0  0  0  0  0  0
   10.3116  -13.5379   29.2808 C   0  0  1  0  0  0  0  0  0  0  0  0
   10.7740  -14.5544   28.2258 N   0  0  0  0  0  0  0  0  0  0  0  0
   10.2069  -14.0981   26.9755 C   0  0  0  0  0  0  0  0  0  0  0  0
   10.2536  -15.8662   28.6519 O   0  0  0  0  0  0  0  0  0  0  0  0
    9.0367  -16.1670   28.6150 O   0  0  0  0  0  0  0  0  0  0  0  0
  1  2  1  0
  2  3  2  0
  4  5  1  0
  4  2  1  0
  6  7  1  0
  6  5  1  0
  8  7  1  0
  8  9  1  6
  8 10  1  0
 10 11  2  0
 13 12  1  0
 14 13  1  0
 14 15  1  6
 16 14  1  0
 16 17  1  1
 17 10  1  0
 18 19  2  0
 18 16  1  0
 21 20  1  6
 21 22  1  0
 22 18  1  0
 23 25  1  0
 23 21  1  0
 24 23  2  0
M  END
$$$$
