RIA.pdb
     RDKit          3D

 25 24  0  0  1  0  0  0  0  0999 V2000
    7.8299  -12.6905   17.0002 N   0  0  0  0  0  0  0  0  0  0  0  0
    8.1423  -13.9910   16.4552 C   0  0  0  0  0  0  0  0  0  0  0  0
    8.4635  -14.0910   15.2105 N   0  0  0  0  0  0  0  0  0  0  0  0
    8.1015  -15.1514   17.2537 N   0  0  0  0  0  0  0  0  0  0  0  0
    7.6281  -15.1112   18.6510 C   0  0  0  0  0  0  0  0  0  0  0  0
    8.3671  -14.0166   19.3534 C   0  0  0  0  0  0  0  0  0  0  0  0
    8.1403  -13.8888   20.8200 C   0  0  0  0  0  0  0  0  0  0  0  0
    8.1806  -15.1633   21.6104 C   0  0  2  0  0  0  0  0  0  0  0  0
    6.8402  -15.6738   21.7631 N   0  0  0  0  0  0  0  0  0  0  0  0
    8.7167  -14.8792   22.9877 C   0  0  0  0  0  0  0  0  0  0  0  0
    9.8712  -14.4345   23.1265 O   0  0  0  0  0  0  0  0  0  0  0  0
    8.7676  -14.9577   14.7330 C   0  0  0  0  0  0  0  0  0  0  0  0
    6.0115  -11.9143   26.1409 C   0  0  0  0  0  0  0  0  0  0  0  0
    7.1141  -12.6904   25.5188 C   0  0  2  0  0  0  0  0  0  0  0  0
    7.6180  -13.8673   26.2782 C   0  0  0  0  0  0  0  0  0  0  0  0
    8.2041  -13.4997   27.6212 C   0  0  2  0  0  0  0  0  0  0  0  0
    8.4636  -14.8318   25.4909 N   0  0  0  0  0  0  0  0  0  0  0  0
    7.9351  -15.1053   24.1679 C   0  0  0  0  0  0  0  0  0  0  0  0
    8.6076  -16.0747   26.2852 O   0  0  0  0  0  0  0  0  0  0  0  0
    7.6129  -16.6630   26.7942 C   0  0  0  0  0  0  0  0  0  0  0  0
   11.2983  -18.5401   26.4390 C   0  0  2  0  0  0  0  0  0  0  0  0
   10.1249  -17.8779   27.1768 N   0  0  0  0  0  0  0  0  0  0  0  0
    9.8891  -16.6293   26.4850 C   0  0  0  0  0  0  0  0  0  0  0  0
   10.5595  -17.6918   28.5731 O   0  0  0  0  0  0  0  0  0  0  0  0
   10.8668  -16.5750   29.0535 O   0  0  0  0  0  0  0  0  0  0  0  0
  1  2  1  0
  2  3  2  0
  4  5  1  0
  4  2  1  0
  6  7  1  0
  6  5  1  0
  8  7  1  0
  8  9  1  1
  8 10  1  0
 10 11  2  0
 13 12  1  0
 14 13  1  0
 14 15  1  6
 16 14  1  0
 16 17  1  6
 17 10  1  0
 18 19  2  0
 18 16  1  0
 21 20  1  6
 21 22  1  0
 22 18  1  0
 23 25  1  0
 23 21  1  0
 24 23  2  0
M  END
$$$$
