RIA.pdb
     RDKit          3D

 25 24  0  0  1  0  0  0  0  0999 V2000
    7.4536  -15.0212   15.6301 N   0  0  0  0  0  0  0  0  0  0  0  0
    8.1201  -14.1344   16.5550 C   0  0  0  0  0  0  0  0  0  0  0  0
    8.2250  -12.8832   16.2622 N   0  0  0  0  0  0  0  0  0  0  0  0
    8.6591  -14.6078   17.7679 N   0  0  0  0  0  0  0  0  0  0  0  0
    8.5577  -16.0282   18.1558 C   0  0  0  0  0  0  0  0  0  0  0  0
    7.5656  -16.1286   19.2709 C   0  0  0  0  0  0  0  0  0  0  0  0
    8.1167  -16.2339   20.6506 C   0  0  0  0  0  0  0  0  0  0  0  0
    7.1616  -15.9405   21.7699 C   0  0  2  0  0  0  0  0  0  0  0  0
    6.1598  -15.0092   21.3119 N   0  0  0  0  0  0  0  0  0  0  0  0
    7.9060  -15.2847   22.9016 C   0  0  0  0  0  0  0  0  0  0  0  0
    8.8954  -14.5677   22.6628 O   0  0  0  0  0  0  0  0  0  0  0  0
    8.7234  -12.1710   16.8244 C   0  0  0  0  0  0  0  0  0  0  0  0
    5.9854  -12.1044   26.3280 C   0  0  0  0  0  0  0  0  0  0  0  0
    6.9898  -12.8732   25.5498 C   0  0  2  0  0  0  0  0  0  0  0  0
    7.6658  -13.9977   26.2527 C   0  0  0  0  0  0  0  0  0  0  0  0
    8.5098  -13.5451   27.4210 C   0  0  2  0  0  0  0  0  0  0  0  0
    8.3503  -14.9995   25.3620 N   0  0  0  0  0  0  0  0  0  0  0  0
    7.5129  -15.4572   24.2694 C   0  0  0  0  0  0  0  0  0  0  0  0
    8.8085  -16.1294   26.2045 O   0  0  0  0  0  0  0  0  0  0  0  0
    8.0213  -16.7606   26.9638 C   0  0  0  0  0  0  0  0  0  0  0  0
   12.0630  -17.9435   26.2672 C   0  0  2  0  0  0  0  0  0  0  0  0
   10.6907  -17.6556   26.8948 N   0  0  0  0  0  0  0  0  0  0  0  0
   10.1624  -16.5235   26.1653 C   0  0  0  0  0  0  0  0  0  0  0  0
   10.9347  -17.3627   28.3189 O   0  0  0  0  0  0  0  0  0  0  0  0
   10.8826  -16.2060   28.8006 O   0  0  0  0  0  0  0  0  0  0  0  0
  1  2  1  0
  2  3  2  0
  4  5  1  0
  4  2  1  0
  6  7  1  0
  6  5  1  0
  8  7  1  0
  8  9  1  6
  8 10  1  0
 10 11  2  0
 13 12  1  0
 14 13  1  0
 14 15  1  1
 16 14  1  0
 16 17  1  6
 17 10  1  0
 18 19  2  0
 18 16  1  0
 21 20  1  6
 21 22  1  0
 22 18  1  0
 23 25  1  0
 23 21  1  0
 24 23  2  0
M  END
$$$$
