DAT.pdb
     RDKit          3D

 21 20  0  0  1  0  0  0  0  0999 V2000
   11.3425  -19.1294   21.9771 N   0  0  0  0  0  0  0  0  0  0  0  0
   11.2376  -17.6907   21.8789 C   0  0  1  0  0  0  0  0  0  0  0  0
   10.7991  -17.2650   20.4939 C   0  0  0  0  0  0  0  0  0  0  0  0
   11.8284  -17.6532   19.5056 C   0  0  0  0  0  0  0  0  0  0  0  0
   13.0144  -17.2886   19.6713 O   0  0  0  0  0  0  0  0  0  0  0  0
   10.3168  -17.2001   22.9241 C   0  0  0  0  0  0  0  0  0  0  0  0
    9.9238  -16.0043   22.8537 O   0  0  0  0  0  0  0  0  0  0  0  0
   11.5196  -18.4147   18.3918 O   0  0  0  0  0  0  0  0  0  0  0  0
    8.4177  -18.5607   25.8140 C   0  0  0  0  0  0  0  0  0  0  0  0
    9.0853  -17.4292   25.0522 C   0  0  2  0  0  0  0  0  0  0  0  0
    9.8564  -18.0097   23.9990 N   0  0  0  0  0  0  0  0  0  0  0  0
    9.8982  -16.5736   25.9541 C   0  0  0  0  0  0  0  0  0  0  0  0
   11.1434  -16.7373   26.0280 O   0  0  0  0  0  0  0  0  0  0  0  0
    9.3389  -12.5551   26.6426 C   0  0  0  0  0  0  0  0  0  0  0  0
    9.4571  -13.3694   27.8846 C   0  0  1  0  0  0  0  0  0  0  0  0
    8.1817  -13.5958   28.4033 O   0  0  0  0  0  0  0  0  0  0  0  0
   10.0857  -14.7236   27.6533 C   0  0  2  0  0  0  0  0  0  0  0  0
    9.3299  -15.5513   26.7608 N   0  0  0  0  0  0  0  0  0  0  0  0
   10.4232  -15.3762   28.9244 C   0  0  0  0  0  0  0  0  0  0  0  0
    9.9679  -16.5019   29.2099 O   0  0  0  0  0  0  0  0  0  0  0  0
   11.2554  -14.7378   29.8180 O   0  0  0  0  0  0  0  0  0  0  0  0
  2  1  1  6
  2  3  1  0
  3  4  1  0
  4  8  1  0
  5  4  2  0
  6  2  1  0
  7  6  2  0
 10  9  1  1
 10 12  1  0
 10 11  1  0
 11  6  1  0
 12 13  2  0
 15 16  1  0
 15 14  1  6
 17 15  1  0
 18 12  1  0
 17 18  1  1
 19 17  1  0
 19 21  1  0
 20 19  2  0
M  END
$$$$
