DAT.pdb
     RDKit          3D

 21 20  0  0  1  0  0  0  0  0999 V2000
   10.7256  -17.4936   20.2741 N   0  0  0  0  0  0  0  0  0  0  0  0
   11.6248  -17.5011   21.4063 C   0  0  1  0  0  0  0  0  0  0  0  0
   12.7528  -16.5090   21.2188 C   0  0  0  0  0  0  0  0  0  0  0  0
   13.7319  -17.0471   20.2500 C   0  0  0  0  0  0  0  0  0  0  0  0
   13.4974  -16.9660   19.0230 O   0  0  0  0  0  0  0  0  0  0  0  0
   10.8546  -17.2343   22.6379 C   0  0  0  0  0  0  0  0  0  0  0  0
   10.0936  -16.2293   22.6547 O   0  0  0  0  0  0  0  0  0  0  0  0
   14.9116  -17.6436   20.6604 O   0  0  0  0  0  0  0  0  0  0  0  0
    9.7159  -19.1492   25.5266 C   0  0  0  0  0  0  0  0  0  0  0  0
   10.0650  -17.8077   24.9062 C   0  0  2  0  0  0  0  0  0  0  0  0
   10.9319  -18.0538   23.7977 N   0  0  0  0  0  0  0  0  0  0  0  0
   10.6608  -16.8859   25.9070 C   0  0  0  0  0  0  0  0  0  0  0  0
   11.9107  -16.8025   26.0241 O   0  0  0  0  0  0  0  0  0  0  0  0
    8.3366  -13.8229   28.0806 C   0  0  0  0  0  0  0  0  0  0  0  0
    9.7801  -13.8051   27.7125 C   0  0  1  0  0  0  0  0  0  0  0  0
   10.4736  -13.0139   28.6291 O   0  0  0  0  0  0  0  0  0  0  0  0
   10.4199  -15.1734   27.7385 C   0  0  2  0  0  0  0  0  0  0  0  0
    9.8737  -16.0701   26.7636 N   0  0  0  0  0  0  0  0  0  0  0  0
   10.4450  -15.7219   29.1001 C   0  0  0  0  0  0  0  0  0  0  0  0
    9.8038  -16.7518   29.3903 O   0  0  0  0  0  0  0  0  0  0  0  0
   11.1873  -15.0915   30.0748 O   0  0  0  0  0  0  0  0  0  0  0  0
  2  1  1  6
  2  3  1  0
  3  4  1  0
  4  8  1  0
  5  4  2  0
  6  2  1  0
  7  6  2  0
 10  9  1  1
 10 12  1  0
 10 11  1  0
 11  6  1  0
 12 13  2  0
 15 16  1  0
 15 14  1  1
 17 15  1  0
 18 12  1  0
 17 18  1  6
 19 17  1  0
 19 21  1  0
 20 19  2  0
M  END
$$$$
