DAT.pdb
     RDKit          3D

 21 20  0  0  1  0  0  0  0  0999 V2000
   15.4776  -19.9890   15.9552 N   0  0  0  0  0  0  0  0  0  0  0  0
   16.2846  -19.4392   17.0214 C   0  0  1  0  0  0  0  0  0  0  0  0
   16.7331  -18.0295   16.7001 C   0  0  0  0  0  0  0  0  0  0  0  0
   17.6759  -18.0554   15.5611 C   0  0  0  0  0  0  0  0  0  0  0  0
   18.1992  -19.1386   15.2151 O   0  0  0  0  0  0  0  0  0  0  0  0
   15.5238  -19.5014   18.2857 C   0  0  0  0  0  0  0  0  0  0  0  0
   14.2741  -19.3431   18.2335 O   0  0  0  0  0  0  0  0  0  0  0  0
   18.0016  -16.9086   14.8578 O   0  0  0  0  0  0  0  0  0  0  0  0
   16.0746  -20.6578   21.7423 C   0  0  0  0  0  0  0  0  0  0  0  0
   15.3270  -19.8104   20.7276 C   0  0  2  0  0  0  0  0  0  0  0  0
   16.1324  -19.7302   19.5506 N   0  0  0  0  0  0  0  0  0  0  0  0
   14.9865  -18.4751   21.2820 C   0  0  0  0  0  0  0  0  0  0  0  0
   15.6631  -17.4650   20.9582 O   0  0  0  0  0  0  0  0  0  0  0  0
   11.6806  -15.5583   23.5946 C   0  0  0  0  0  0  0  0  0  0  0  0
   12.0736  -16.8969   23.0720 C   0  0  1  0  0  0  0  0  0  0  0  0
   11.3500  -17.1615   21.9087 O   0  0  0  0  0  0  0  0  0  0  0  0
   13.5376  -16.9910   22.7115 C   0  0  2  0  0  0  0  0  0  0  0  0
   13.9076  -18.2706   22.1837 N   0  0  0  0  0  0  0  0  0  0  0  0
   14.3874  -16.5390   23.8202 C   0  0  0  0  0  0  0  0  0  0  0  0
   14.8331  -17.3472   24.6594 O   0  0  0  0  0  0  0  0  0  0  0  0
   14.6990  -15.2020   23.9382 O   0  0  0  0  0  0  0  0  0  0  0  0
  2  1  1  6
  2  3  1  0
  3  4  1  0
  4  8  1  0
  5  4  2  0
  6  2  1  0
  7  6  2  0
 10  9  1  1
 10 12  1  0
 10 11  1  0
 11  6  1  0
 12 13  2  0
 15 16  1  0
 15 14  1  6
 17 15  1  0
 18 12  1  0
 17 18  1  1
 19 17  1  0
 19 21  1  0
 20 19  2  0
M  END
$$$$
