DAT.pdb
     RDKit          3D

 21 20  0  0  1  0  0  0  0  0999 V2000
    8.7074  -16.1703   16.6452 N   0  0  0  0  0  0  0  0  0  0  0  0
   10.0258  -15.6916   16.9963 C   0  0  1  0  0  0  0  0  0  0  0  0
   10.7981  -15.2583   15.7686 C   0  0  0  0  0  0  0  0  0  0  0  0
   10.9637  -16.4086   14.8542 C   0  0  0  0  0  0  0  0  0  0  0  0
   11.6246  -17.4047   15.2256 O   0  0  0  0  0  0  0  0  0  0  0  0
    9.8974  -14.5988   17.9814 C   0  0  0  0  0  0  0  0  0  0  0  0
   10.9537  -14.1189   18.4749 O   0  0  0  0  0  0  0  0  0  0  0  0
   10.4057  -16.4195   13.5875 O   0  0  0  0  0  0  0  0  0  0  0  0
    7.2639  -12.3244   19.2464 C   0  0  0  0  0  0  0  0  0  0  0  0
    8.5978  -13.0371   19.3849 C   0  0  2  0  0  0  0  0  0  0  0  0
    8.6452  -14.0668   18.3959 N   0  0  0  0  0  0  0  0  0  0  0  0
    8.7953  -13.5554   20.7628 C   0  0  0  0  0  0  0  0  0  0  0  0
    8.7915  -12.7653   21.7419 O   0  0  0  0  0  0  0  0  0  0  0  0
    6.8410  -16.4320   22.4732 C   0  0  0  0  0  0  0  0  0  0  0  0
    8.3013  -16.6899   22.6172 C   0  0  1  0  0  0  0  0  0  0  0  0
    8.6870  -17.6541   21.6853 O   0  0  0  0  0  0  0  0  0  0  0  0
    9.1515  -15.4671   22.3639 C   0  0  2  0  0  0  0  0  0  0  0  0
    8.9940  -14.9340   21.0434 N   0  0  0  0  0  0  0  0  0  0  0  0
   10.5495  -15.7046   22.7443 C   0  0  0  0  0  0  0  0  0  0  0  0
   10.8583  -15.9740   23.9226 O   0  0  0  0  0  0  0  0  0  0  0  0
   11.5381  -15.6295   21.7874 O   0  0  0  0  0  0  0  0  0  0  0  0
  2  1  1  6
  2  3  1  0
  3  4  1  0
  4  8  1  0
  5  4  2  0
  6  2  1  0
  7  6  2  0
 10  9  1  1
 10 12  1  0
 10 11  1  0
 11  6  1  0
 12 13  2  0
 15 16  1  0
 15 14  1  6
 17 15  1  0
 18 12  1  0
 17 18  1  6
 19 17  1  0
 19 21  1  0
 20 19  2  0
M  END
$$$$
