DAT.pdb
     RDKit          3D

 21 20  0  0  1  0  0  0  0  0999 V2000
    8.8483  -18.1278   19.6438 N   0  0  0  0  0  0  0  0  0  0  0  0
   10.0882  -17.5106   20.0586 C   0  0  1  0  0  0  0  0  0  0  0  0
   10.9794  -17.2154   18.8711 C   0  0  0  0  0  0  0  0  0  0  0  0
   10.8317  -18.2853   17.8609 C   0  0  0  0  0  0  0  0  0  0  0  0
   10.4357  -19.4192   18.2134 O   0  0  0  0  0  0  0  0  0  0  0  0
    9.7858  -16.2928   20.8376 C   0  0  0  0  0  0  0  0  0  0  0  0
   10.7417  -15.7035   21.4106 O   0  0  0  0  0  0  0  0  0  0  0  0
   11.1203  -18.0710   16.5242 O   0  0  0  0  0  0  0  0  0  0  0  0
    6.9618  -13.9465   21.2795 C   0  0  0  0  0  0  0  0  0  0  0  0
    8.2565  -14.5837   21.7528 C   0  0  2  0  0  0  0  0  0  0  0  0
    8.4744  -15.7585   20.9698 N   0  0  0  0  0  0  0  0  0  0  0  0
    8.2217  -14.8642   23.2109 C   0  0  0  0  0  0  0  0  0  0  0  0
    7.9651  -13.9411   24.0263 O   0  0  0  0  0  0  0  0  0  0  0  0
    6.0195  -16.7853   25.3525 C   0  0  0  0  0  0  0  0  0  0  0  0
    7.3739  -17.3575   25.5928 C   0  0  1  0  0  0  0  0  0  0  0  0
    7.5037  -18.5407   24.8647 O   0  0  0  0  0  0  0  0  0  0  0  0
    8.4945  -16.4444   25.1535 C   0  0  2  0  0  0  0  0  0  0  0  0
    8.4694  -16.1551   23.7505 N   0  0  0  0  0  0  0  0  0  0  0  0
    9.7939  -16.9289   25.6357 C   0  0  0  0  0  0  0  0  0  0  0  0
    9.9985  -17.1184   26.8516 O   0  0  0  0  0  0  0  0  0  0  0  0
   10.8050  -17.1791   24.7337 O   0  0  0  0  0  0  0  0  0  0  0  0
  2  1  1  6
  2  3  1  0
  3  4  1  0
  4  8  1  0
  5  4  2  0
  6  2  1  0
  7  6  2  0
 10  9  1  6
 10 12  1  0
 10 11  1  0
 11  6  1  0
 12 13  2  0
 15 16  1  0
 15 14  1  6
 17 15  1  0
 18 12  1  0
 17 18  1  6
 19 17  1  0
 19 21  1  0
 20 19  2  0
M  END
$$$$
