DAT.pdb
     RDKit          3D

 21 20  0  0  1  0  0  0  0  0999 V2000
    8.2924  -16.3114   19.8473 N   0  0  0  0  0  0  0  0  0  0  0  0
    9.5124  -16.8553   20.4008 C   0  0  1  0  0  0  0  0  0  0  0  0
   10.6852  -16.6328   19.4699 C   0  0  0  0  0  0  0  0  0  0  0  0
   10.3891  -17.2245   18.1474 C   0  0  0  0  0  0  0  0  0  0  0  0
    9.2687  -17.7418   17.9374 O   0  0  0  0  0  0  0  0  0  0  0  0
    9.7456  -16.2628   21.7334 C   0  0  0  0  0  0  0  0  0  0  0  0
   10.8717  -16.4403   22.2718 O   0  0  0  0  0  0  0  0  0  0  0  0
   11.3206  -17.2248   17.1235 O   0  0  0  0  0  0  0  0  0  0  0  0
    7.9403  -14.0778   24.1487 C   0  0  0  0  0  0  0  0  0  0  0  0
    9.0020  -15.0995   23.7806 C   0  0  2  0  0  0  0  0  0  0  0  0
    8.7645  -15.5064   22.4320 N   0  0  0  0  0  0  0  0  0  0  0  0
    9.0094  -16.2406   24.7314 C   0  0  0  0  0  0  0  0  0  0  0  0
    8.0021  -16.9879   24.8299 O   0  0  0  0  0  0  0  0  0  0  0  0
   10.5858  -19.3213   24.6471 C   0  0  0  0  0  0  0  0  0  0  0  0
   11.0221  -18.7931   25.9701 C   0  0  1  0  0  0  0  0  0  0  0  0
   12.3263  -18.3097   25.8593 O   0  0  0  0  0  0  0  0  0  0  0  0
   10.1690  -17.6499   26.4676 C   0  0  2  0  0  0  0  0  0  0  0  0
   10.1239  -16.5428   25.5593 N   0  0  0  0  0  0  0  0  0  0  0  0
   10.5308  -17.2760   27.8405 C   0  0  0  0  0  0  0  0  0  0  0  0
   10.9193  -16.1219   28.1113 O   0  0  0  0  0  0  0  0  0  0  0  0
   10.4409  -18.2121   28.8476 O   0  0  0  0  0  0  0  0  0  0  0  0
  2  1  1  6
  2  3  1  0
  3  4  1  0
  4  8  1  0
  5  4  2  0
  6  2  1  0
  7  6  2  0
 10  9  1  1
 10 12  1  0
 10 11  1  0
 11  6  1  0
 12 13  2  0
 15 16  1  0
 15 14  1  6
 17 15  1  0
 18 12  1  0
 17 18  1  6
 19 17  1  0
 19 21  1  0
 20 19  2  0
M  END
$$$$
