DAT.pdb
     RDKit          3D

 21 20  0  0  1  0  0  0  0  0999 V2000
    4.8849  -19.3502   20.5605 N   0  0  0  0  0  0  0  0  0  0  0  0
    5.0950  -19.9480   21.8602 C   0  0  1  0  0  0  0  0  0  0  0  0
    5.3129  -21.4419   21.7491 C   0  0  0  0  0  0  0  0  0  0  0  0
    4.0596  -22.0959   21.3149 C   0  0  0  0  0  0  0  0  0  0  0  0
    2.9640  -21.5199   21.5011 O   0  0  0  0  0  0  0  0  0  0  0  0
    6.2276  -19.2733   22.5259 C   0  0  0  0  0  0  0  0  0  0  0  0
    7.2377  -18.9847   21.8289 O   0  0  0  0  0  0  0  0  0  0  0  0
    4.0591  -23.3373   20.7027 O   0  0  0  0  0  0  0  0  0  0  0  0
    6.8596  -17.4793   25.6818 C   0  0  0  0  0  0  0  0  0  0  0  0
    7.3530  -18.2606   24.4766 C   0  0  2  0  0  0  0  0  0  0  0  0
    6.2305  -18.9367   23.9077 N   0  0  0  0  0  0  0  0  0  0  0  0
    8.4546  -19.1865   24.8444 C   0  0  0  0  0  0  0  0  0  0  0  0
    8.1939  -20.3221   25.3191 O   0  0  0  0  0  0  0  0  0  0  0  0
   11.3932  -20.2258   22.5684 C   0  0  0  0  0  0  0  0  0  0  0  0
   11.9469  -19.7985   23.8839 C   0  0  1  0  0  0  0  0  0  0  0  0
   12.4769  -18.5138   23.7587 O   0  0  0  0  0  0  0  0  0  0  0  0
   10.9079  -19.7419   24.9792 C   0  0  2  0  0  0  0  0  0  0  0  0
    9.8258  -18.8501   24.6848 N   0  0  0  0  0  0  0  0  0  0  0  0
   11.5293  -19.5079   26.2886 C   0  0  0  0  0  0  0  0  0  0  0  0
   11.2694  -18.4824   26.9495 O   0  0  0  0  0  0  0  0  0  0  0  0
   12.4137  -20.4336   26.7980 O   0  0  0  0  0  0  0  0  0  0  0  0
  2  1  1  6
  2  3  1  0
  3  4  1  0
  4  8  1  0
  5  4  2  0
  6  2  1  0
  7  6  2  0
 10  9  1  1
 10 12  1  0
 10 11  1  0
 11  6  1  0
 12 13  2  0
 15 16  1  0
 15 14  1  6
 17 15  1  0
 18 12  1  0
 17 18  1  6
 19 17  1  0
 19 21  1  0
 20 19  2  0
M  END
$$$$
