RVF.pdb
     RDKit          3D

 30 30  0  0  1  0  0  0  0  0999 V2000
    9.2279  -13.6512   18.2868 N   0  0  0  0  0  0  0  0  0  0  0  0
    7.8787  -13.3569   17.8838 C   0  0  0  0  0  0  0  0  0  0  0  0
    7.5985  -12.8855   16.7414 N   0  0  0  0  0  0  0  0  0  0  0  0
    6.8463  -13.6126   18.8196 N   0  0  0  0  0  0  0  0  0  0  0  0
    7.0283  -14.2632   20.0861 C   0  0  0  0  0  0  0  0  0  0  0  0
    7.3568  -15.7016   19.9365 C   0  0  0  0  0  0  0  0  0  0  0  0
    8.1884  -16.3002   20.9866 C   0  0  0  0  0  0  0  0  0  0  0  0
    7.6380  -16.7958   22.2605 C   0  0  2  0  0  0  0  0  0  0  0  0
    6.2206  -16.9024   22.3336 N   0  0  0  0  0  0  0  0  0  0  0  0
    8.1455  -15.9233   23.3841 C   0  0  0  0  0  0  0  0  0  0  0  0
    9.3509  -15.5619   23.3608 O   0  0  0  0  0  0  0  0  0  0  0  0
    6.6375  -12.5951   16.5049 C   0  0  0  0  0  0  0  0  0  0  0  0
    6.2434  -12.9399   25.0945 C   0  0  1  0  0  0  0  0  0  0  0  0
    6.8390  -13.8121   26.1572 C   0  0  0  0  0  0  0  0  0  0  0  0
    7.4161  -13.0134   27.3052 C   0  0  2  0  0  0  0  0  0  0  0  0
    7.8908  -14.7766   25.5818 N   0  0  0  0  0  0  0  0  0  0  0  0
    7.3421  -15.4881   24.4626 C   0  0  0  0  0  0  0  0  0  0  0  0
    8.3313  -15.6312   26.6822 O   0  0  0  0  0  0  0  0  0  0  0  0
    7.5676  -16.3099   27.4151 N   0  0  0  0  0  0  0  0  0  0  0  0
    9.7257  -15.7058   26.9495 C   0  0  1  0  0  0  0  0  0  0  0  0
   10.3238  -16.8939   27.5356 C   0  0  0  0  0  0  0  0  0  0  0  0
    9.9617  -18.1397   26.8061 C   0  0  0  0  0  0  0  0  0  0  0  0
    8.7415  -18.7377   27.3873 C   0  0  0  0  0  0  0  0  0  0  0  0
    7.5593  -18.9153   26.7069 C   0  0  0  0  0  0  0  0  0  0  0  0
    6.4596  -19.4925   27.3322 C   0  0  0  0  0  0  0  0  0  0  0  0
    6.5148  -19.9014   28.6392 C   0  0  0  0  0  0  0  0  0  0  0  0
    7.7012  -19.7208   29.3149 C   0  0  0  0  0  0  0  0  0  0  0  0
    8.8076  -19.1524   28.7232 C   0  0  0  0  0  0  0  0  0  0  0  0
   11.7741  -16.7058   27.7611 O   0  0  0  0  0  0  0  0  0  0  0  0
   12.5285  -15.9685   27.0903 O   0  0  0  0  0  0  0  0  0  0  0  0
  2  3  2  0
  2  1  1  0
  4  2  1  0
  5  4  1  0
  6  5  1  0
  7  6  1  0
  8  9  1  6
  8  7  1  0
 10 16  1  0
 10  8  1  0
 11 10  2  0
 13 12  1  1
 13 15  1  0
 14 13  1  0
 15 17  1  0
 15 16  1  6
 17 18  2  0
 19 20  1  0
 19 17  1  0
 20 28  1  0
 21 22  1  0
 20 21  1  1
 22 23  2  0
 23 24  1  0
 25 24  2  0
 26 25  1  0
 27 26  2  0
 27 22  1  0
 28 29  2  0
 28 30  1  0
M  END
$$$$
