RVF.pdb
     RDKit          3D

 30 30  0  0  1  0  0  0  0  0999 V2000
   11.9609  -17.3138   13.2668 N   0  0  0  0  0  0  0  0  0  0  0  0
   11.3777  -17.1407   14.5703 C   0  0  0  0  0  0  0  0  0  0  0  0
   11.4625  -16.0520   15.2134 N   0  0  0  0  0  0  0  0  0  0  0  0
   10.6906  -18.2453   15.1311 N   0  0  0  0  0  0  0  0  0  0  0  0
   10.0515  -18.2485   16.4165 C   0  0  0  0  0  0  0  0  0  0  0  0
   11.0102  -18.4999   17.5197 C   0  0  0  0  0  0  0  0  0  0  0  0
   11.0760  -17.4869   18.5790 C   0  0  0  0  0  0  0  0  0  0  0  0
   10.2396  -17.5386   19.7910 C   0  0  2  0  0  0  0  0  0  0  0  0
    8.9176  -18.0378   19.6216 N   0  0  0  0  0  0  0  0  0  0  0  0
   10.1926  -16.1620   20.4109 C   0  0  0  0  0  0  0  0  0  0  0  0
   11.2713  -15.5245   20.5303 O   0  0  0  0  0  0  0  0  0  0  0  0
   11.0148  -15.9407   16.1359 C   0  0  0  0  0  0  0  0  0  0  0  0
    6.5294  -13.9845   21.1299 C   0  0  1  0  0  0  0  0  0  0  0  0
    7.8812  -13.3854   20.8885 C   0  0  0  0  0  0  0  0  0  0  0  0
    8.1380  -13.1077   19.4237 C   0  0  1  0  0  0  0  0  0  0  0  0
    9.0048  -14.2520   21.4836 N   0  0  0  0  0  0  0  0  0  0  0  0
    9.0036  -15.5472   20.8653 C   0  0  0  0  0  0  0  0  0  0  0  0
    8.8034  -14.2747   22.9308 O   0  0  0  0  0  0  0  0  0  0  0  0
    8.1756  -13.4019   23.5827 N   0  0  0  0  0  0  0  0  0  0  0  0
    9.3552  -15.3617   23.6624 C   0  0  2  0  0  0  0  0  0  0  0  0
    9.0913  -15.5336   25.0814 C   0  0  0  0  0  0  0  0  0  0  0  0
    7.6417  -15.4580   25.4101 C   0  0  0  0  0  0  0  0  0  0  0  0
    7.3118  -14.1308   25.9705 C   0  0  0  0  0  0  0  0  0  0  0  0
    6.0541  -13.5740   25.9692 C   0  0  0  0  0  0  0  0  0  0  0  0
    5.8324  -12.3184   26.5242 C   0  0  0  0  0  0  0  0  0  0  0  0
    6.8525  -11.5968   27.0874 C   0  0  0  0  0  0  0  0  0  0  0  0
    8.1094  -12.1598   27.0855 C   0  0  0  0  0  0  0  0  0  0  0  0
    8.3604  -13.4011   26.5439 C   0  0  0  0  0  0  0  0  0  0  0  0
    9.7872  -16.7263   25.6133 O   0  0  0  0  0  0  0  0  0  0  0  0
    9.7699  -17.1130   26.8019 O   0  0  0  0  0  0  0  0  0  0  0  0
  2  3  2  0
  2  1  1  0
  4  2  1  0
  5  4  1  0
  6  5  1  0
  7  6  1  0
  8  9  1  6
  8  7  1  0
 10 16  1  0
 10  8  1  0
 11 10  2  0
 13 12  1  1
 13 15  1  0
 14 13  1  0
 15 17  1  0
 15 16  1  6
 17 18  2  0
 19 20  1  0
 19 17  1  0
 20 28  1  0
 21 22  1  0
 20 21  1  6
 22 23  2  0
 23 24  1  0
 25 24  2  0
 26 25  1  0
 27 26  2  0
 27 22  1  0
 28 29  2  0
 28 30  1  0
M  END
$$$$
