RVF.pdb
     RDKit          3D

 30 30  0  0  1  0  0  0  0  0999 V2000
    8.9285  -15.2546   11.8091 N   0  0  0  0  0  0  0  0  0  0  0  0
    9.4808  -15.6730   13.0697 C   0  0  0  0  0  0  0  0  0  0  0  0
   10.4153  -16.5250   13.1527 N   0  0  0  0  0  0  0  0  0  0  0  0
    8.9396  -15.0955   14.2446 N   0  0  0  0  0  0  0  0  0  0  0  0
    9.3578  -15.4089   15.5816 C   0  0  0  0  0  0  0  0  0  0  0  0
    9.6225  -16.8569   15.7624 C   0  0  0  0  0  0  0  0  0  0  0  0
   10.3188  -17.2508   16.9922 C   0  0  0  0  0  0  0  0  0  0  0  0
    9.6122  -17.5972   18.2380 C   0  0  2  0  0  0  0  0  0  0  0  0
    8.2214  -17.8737   18.1157 N   0  0  0  0  0  0  0  0  0  0  0  0
    9.8290  -16.4930   19.2457 C   0  0  0  0  0  0  0  0  0  0  0  0
   11.0075  -16.1101   19.4664 O   0  0  0  0  0  0  0  0  0  0  0  0
   10.8087  -16.7984   14.0660 C   0  0  0  0  0  0  0  0  0  0  0  0
    6.8532  -13.7745   19.9818 C   0  0  1  0  0  0  0  0  0  0  0  0
    7.6783  -14.0796   21.1945 C   0  0  0  0  0  0  0  0  0  0  0  0
    7.9085  -12.8600   22.0597 C   0  0  2  0  0  0  0  0  0  0  0  0
    9.0155  -14.7442   20.8234 N   0  0  0  0  0  0  0  0  0  0  0  0
    8.7817  -15.8637   19.9563 C   0  0  0  0  0  0  0  0  0  0  0  0
    9.6848  -15.0827   22.0776 O   0  0  0  0  0  0  0  0  0  0  0  0
   10.8538  -14.7360   22.3846 N   0  0  0  0  0  0  0  0  0  0  0  0
    8.9668  -15.8616   23.0257 C   0  0  1  0  0  0  0  0  0  0  0  0
    9.2372  -15.7622   24.4504 C   0  0  0  0  0  0  0  0  0  0  0  0
    9.1609  -14.3638   24.9541 C   0  0  0  0  0  0  0  0  0  0  0  0
    9.4721  -14.3215   26.3983 C   0  0  0  0  0  0  0  0  0  0  0  0
   10.6061  -14.8521   26.9680 C   0  0  0  0  0  0  0  0  0  0  0  0
   10.8209  -14.7626   28.3389 C   0  0  0  0  0  0  0  0  0  0  0  0
    9.9162  -14.1473   29.1645 C   0  0  0  0  0  0  0  0  0  0  0  0
    8.7830  -13.6182   28.5880 C   0  0  0  0  0  0  0  0  0  0  0  0
    8.5421  -13.6908   27.2337 C   0  0  0  0  0  0  0  0  0  0  0  0
    8.4351  -16.7423   25.2158 O   0  0  0  0  0  0  0  0  0  0  0  0
    8.8633  -17.4870   26.1240 O   0  0  0  0  0  0  0  0  0  0  0  0
  2  3  2  0
  2  1  1  0
  4  2  1  0
  5  4  1  0
  6  5  1  0
  7  6  1  0
  8  9  1  6
  8  7  1  0
 10 16  1  0
 10  8  1  0
 11 10  2  0
 13 12  1  1
 13 15  1  0
 14 13  1  0
 15 17  1  0
 15 16  1  6
 17 18  2  0
 19 20  1  0
 19 17  1  0
 20 28  1  0
 21 22  1  0
 20 21  1  1
 22 23  2  0
 23 24  1  0
 25 24  2  0
 26 25  1  0
 27 26  2  0
 27 22  1  0
 28 29  2  0
 28 30  1  0
M  END
$$$$
