RVF.pdb
     RDKit          3D

 30 30  0  0  1  0  0  0  0  0999 V2000
   11.6086  -18.4988   14.4962 N   0  0  0  0  0  0  0  0  0  0  0  0
   10.2657  -18.6451   14.0016 C   0  0  0  0  0  0  0  0  0  0  0  0
    9.8147  -17.9481   13.0441 N   0  0  0  0  0  0  0  0  0  0  0  0
    9.4398  -19.6106   14.6280 N   0  0  0  0  0  0  0  0  0  0  0  0
    9.0463  -19.5838   16.0082 C   0  0  0  0  0  0  0  0  0  0  0  0
    9.4087  -18.3074   16.6707 C   0  0  0  0  0  0  0  0  0  0  0  0
   10.0766  -18.4075   17.9732 C   0  0  0  0  0  0  0  0  0  0  0  0
    9.3436  -18.4204   19.2514 C   0  0  2  0  0  0  0  0  0  0  0  0
    7.9582  -18.7384   19.1783 N   0  0  0  0  0  0  0  0  0  0  0  0
    9.5283  -17.0856   19.9338 C   0  0  0  0  0  0  0  0  0  0  0  0
   10.6898  -16.6052   19.9997 O   0  0  0  0  0  0  0  0  0  0  0  0
    8.8775  -18.1240   12.6511 C   0  0  0  0  0  0  0  0  0  0  0  0
    7.1001  -14.0018   19.5973 C   0  0  1  0  0  0  0  0  0  0  0  0
    7.4715  -14.1860   21.0369 C   0  0  0  0  0  0  0  0  0  0  0  0
    7.6955  -12.8705   21.7498 C   0  0  2  0  0  0  0  0  0  0  0  0
    8.6929  -15.1078   21.1986 N   0  0  0  0  0  0  0  0  0  0  0  0
    8.4689  -16.3434   20.5036 C   0  0  0  0  0  0  0  0  0  0  0  0
    8.9263  -15.2570   22.6334 O   0  0  0  0  0  0  0  0  0  0  0  0
    8.1270  -15.7985   23.4389 N   0  0  0  0  0  0  0  0  0  0  0  0
   10.1456  -14.7551   23.1648 C   0  0  2  0  0  0  0  0  0  0  0  0
   10.4369  -14.8187   24.5875 C   0  0  0  0  0  0  0  0  0  0  0  0
    9.2434  -14.5401   25.4319 C   0  0  0  0  0  0  0  0  0  0  0  0
    9.6294  -14.4671   26.8566 C   0  0  0  0  0  0  0  0  0  0  0  0
    9.8013  -15.5590   27.6754 C   0  0  0  0  0  0  0  0  0  0  0  0
   10.1711  -15.3978   29.0061 C   0  0  0  0  0  0  0  0  0  0  0  0
   10.3754  -14.1541   29.5446 C   0  0  0  0  0  0  0  0  0  0  0  0
   10.2016  -13.0650   28.7197 C   0  0  0  0  0  0  0  0  0  0  0  0
    9.8360  -13.1923   27.3978 C   0  0  0  0  0  0  0  0  0  0  0  0
   11.1624  -16.0624   24.9288 O   0  0  0  0  0  0  0  0  0  0  0  0
   12.2814  -16.1274   25.4822 O   0  0  0  0  0  0  0  0  0  0  0  0
  2  3  2  0
  2  1  1  0
  4  2  1  0
  5  4  1  0
  6  5  1  0
  7  6  1  0
  8  9  1  6
  8  7  1  0
 10 16  1  0
 10  8  1  0
 11 10  2  0
 13 12  1  1
 13 15  1  0
 14 13  1  0
 15 17  1  0
 15 16  1  6
 17 18  2  0
 19 20  1  0
 19 17  1  0
 20 28  1  0
 21 22  1  0
 20 21  1  6
 22 23  2  0
 23 24  1  0
 25 24  2  0
 26 25  1  0
 27 26  2  0
 27 22  1  0
 28 29  2  0
 28 30  1  0
M  END
$$$$
