RVF.pdb
     RDKit          3D

 30 30  0  0  1  0  0  0  0  0999 V2000
    6.0827  -21.6386   18.3975 N   0  0  0  0  0  0  0  0  0  0  0  0
    5.8495  -22.6747   19.3678 C   0  0  0  0  0  0  0  0  0  0  0  0
    5.1930  -23.7242   19.0966 N   0  0  0  0  0  0  0  0  0  0  0  0
    6.3844  -22.4870   20.6661 N   0  0  0  0  0  0  0  0  0  0  0  0
    7.0454  -21.2955   21.1177 C   0  0  0  0  0  0  0  0  0  0  0  0
    7.4840  -20.4355   19.9919 C   0  0  0  0  0  0  0  0  0  0  0  0
    8.0759  -19.1401   20.3442 C   0  0  0  0  0  0  0  0  0  0  0  0
    8.4802  -18.1428   19.3376 C   0  0  2  0  0  0  0  0  0  0  0  0
    9.4697  -18.5587   18.4029 N   0  0  0  0  0  0  0  0  0  0  0  0
    8.9391  -16.8909   20.0474 C   0  0  0  0  0  0  0  0  0  0  0  0
   10.1279  -16.8396   20.4575 O   0  0  0  0  0  0  0  0  0  0  0  0
    5.0658  -24.4701   19.7974 C   0  0  0  0  0  0  0  0  0  0  0  0
    7.7811  -13.2504   19.0560 C   0  0  1  0  0  0  0  0  0  0  0  0
    7.8007  -13.3698   20.5492 C   0  0  0  0  0  0  0  0  0  0  0  0
    8.3510  -12.1314   21.2217 C   0  0  2  0  0  0  0  0  0  0  0  0
    8.5616  -14.6246   21.0122 N   0  0  0  0  0  0  0  0  0  0  0  0
    8.1079  -15.7710   20.2775 C   0  0  0  0  0  0  0  0  0  0  0  0
    8.3778  -14.7240   22.4585 O   0  0  0  0  0  0  0  0  0  0  0  0
    7.4209  -14.2175   23.0977 N   0  0  0  0  0  0  0  0  0  0  0  0
    9.3493  -15.4458   23.2045 C   0  0  2  0  0  0  0  0  0  0  0  0
    9.3921  -15.3831   24.6561 C   0  0  0  0  0  0  0  0  0  0  0  0
    8.0680  -15.6464   25.2825 C   0  0  0  0  0  0  0  0  0  0  0  0
    7.4442  -14.3782   25.7147 C   0  0  0  0  0  0  0  0  0  0  0  0
    6.1094  -14.0774   25.5739 C   0  0  0  0  0  0  0  0  0  0  0  0
    5.6055  -12.8586   26.0145 C   0  0  0  0  0  0  0  0  0  0  0  0
    6.4158  -11.9209   26.5999 C   0  0  0  0  0  0  0  0  0  0  0  0
    7.7513  -12.2280   26.7379 C   0  0  0  0  0  0  0  0  0  0  0  0
    8.2800  -13.4264   26.3117 C   0  0  0  0  0  0  0  0  0  0  0  0
   10.5056  -16.1964   25.1930 O   0  0  0  0  0  0  0  0  0  0  0  0
   11.2966  -16.8895   24.5172 O   0  0  0  0  0  0  0  0  0  0  0  0
  2  3  2  0
  2  1  1  0
  4  2  1  0
  5  4  1  0
  6  5  1  0
  7  6  1  0
  8  9  1  1
  8  7  1  0
 10 16  1  0
 10  8  1  0
 11 10  2  0
 13 12  1  1
 13 15  1  0
 14 13  1  0
 15 17  1  0
 15 16  1  6
 17 18  2  0
 19 20  1  0
 19 17  1  0
 20 28  1  0
 21 22  1  0
 20 21  1  6
 22 23  2  0
 23 24  1  0
 25 24  2  0
 26 25  1  0
 27 26  2  0
 27 22  1  0
 28 29  2  0
 28 30  1  0
M  END
$$$$
