AEY.pdb
     RDKit          3D

 27 27  0  0  1  0  0  0  0  0999 V2000
   26.8324  -12.3218  -15.6594 C   0  0  0  0  0  0  0  0  0  0  0  0
   26.6217  -11.9794  -17.1015 C   0  0  2  0  0  0  0  0  0  0  0  0
   27.8597  -11.7865  -17.8131 N   0  0  0  0  0  0  0  0  0  0  0  0
   25.6842  -10.8396  -17.3134 C   0  0  0  0  0  0  0  0  0  0  0  0
   26.1207   -9.6598  -17.3505 O   0  0  0  0  0  0  0  0  0  0  0  0
   24.3139  -11.1319  -17.4670 N   0  0  0  0  0  0  0  0  0  0  0  0
   23.3776  -10.0790  -17.7038 C   0  0  1  0  0  0  0  0  0  0  0  0
   22.2802  -10.5401  -18.6203 C   0  0  0  0  0  0  0  0  0  0  0  0
   21.3215   -9.4679  -19.0326 C   0  0  0  0  0  0  0  0  0  0  0  0
   20.2879   -9.9493  -19.9696 C   0  0  0  0  0  0  0  0  0  0  0  0
   19.2751  -10.5713  -19.5921 O   0  0  0  0  0  0  0  0  0  0  0  0
   22.6748   -9.6918  -16.4189 C   0  0  0  0  0  0  0  0  0  0  0  0
   22.3422  -10.6282  -15.6562 O   0  0  0  0  0  0  0  0  0  0  0  0
   20.4505   -9.6984  -21.3323 O   0  0  0  0  0  0  0  0  0  0  0  0
   24.1206   -2.1895  -16.1605 O   0  0  0  0  0  0  0  0  0  0  0  0
   23.8605   -3.4525  -15.6547 C   0  0  0  0  0  0  0  0  0  0  0  0
   24.5363   -4.5719  -16.1255 C   0  0  0  0  0  0  0  0  0  0  0  0
   24.2863   -5.8331  -15.6306 C   0  0  0  0  0  0  0  0  0  0  0  0
   23.3484   -6.0171  -14.6444 C   0  0  0  0  0  0  0  0  0  0  0  0
   22.9917   -7.2889  -14.0421 C   0  0  0  0  0  0  0  0  0  0  0  0
   21.9043   -8.0620  -14.7395 C   0  0  2  0  0  0  0  0  0  0  0  0
   22.3963   -8.3649  -16.0712 N   0  0  0  0  0  0  0  0  0  0  0  0
   20.6501   -7.2593  -14.9113 C   0  0  0  0  0  0  0  0  0  0  0  0
   19.9338   -6.9070  -13.9335 O   0  0  0  0  0  0  0  0  0  0  0  0
   22.6827   -4.8834  -14.1870 C   0  0  0  0  0  0  0  0  0  0  0  0
   22.9220   -3.6299  -14.6694 C   0  0  0  0  0  0  0  0  0  0  0  0
   20.2014   -6.8532  -16.1686 O   0  0  0  0  0  0  0  0  0  0  0  0
  2  1  1  1
  3  2  1  0
  4  2  1  0
  5  4  2  0
  6  4  1  0
  7  6  1  0
  7  8  1  6
  9  8  1  0
 10  9  1  0
 10 11  2  0
 12 22  1  0
 12  7  1  0
 13 12  2  0
 14 10  1  0
 15 16  1  0
 16 17  2  0
 17 18  1  0
 19 20  1  0
 19 18  2  0
 21 20  1  1
 21 23  1  0
 21 22  1  0
 23 27  1  0
 24 23  2  0
 25 19  1  0
 26 25  2  0
 26 16  1  0
M  END
$$$$
