AEY.pdb
     RDKit          3D

 27 27  0  0  1  0  0  0  0  0999 V2000
   18.4864  -15.6923  -16.2580 C   0  0  0  0  0  0  0  0  0  0  0  0
   18.2694  -14.2351  -16.5243 C   0  0  2  0  0  0  0  0  0  0  0  0
   17.4089  -13.9995  -17.6559 N   0  0  0  0  0  0  0  0  0  0  0  0
   19.5340  -13.4519  -16.6246 C   0  0  0  0  0  0  0  0  0  0  0  0
   20.3712  -13.4788  -15.6852 O   0  0  0  0  0  0  0  0  0  0  0  0
   19.7497  -12.6933  -17.7928 N   0  0  0  0  0  0  0  0  0  0  0  0
   20.9500  -11.9331  -17.9436 C   0  0  1  0  0  0  0  0  0  0  0  0
   21.2743  -11.7349  -19.3970 C   0  0  0  0  0  0  0  0  0  0  0  0
   21.8054  -12.9511  -20.0880 C   0  0  0  0  0  0  0  0  0  0  0  0
   22.1918  -12.6944  -21.4890 C   0  0  0  0  0  0  0  0  0  0  0  0
   21.4142  -12.8804  -22.4460 O   0  0  0  0  0  0  0  0  0  0  0  0
   20.7680  -10.5345  -17.3910 C   0  0  0  0  0  0  0  0  0  0  0  0
   19.6015  -10.0778  -17.3909 O   0  0  0  0  0  0  0  0  0  0  0  0
   23.4787  -12.2248  -21.7532 O   0  0  0  0  0  0  0  0  0  0  0  0
   22.7798   -2.7639  -13.6258 O   0  0  0  0  0  0  0  0  0  0  0  0
   22.6975   -4.0884  -14.0228 C   0  0  0  0  0  0  0  0  0  0  0  0
   21.9046   -5.0000  -13.3358 C   0  0  0  0  0  0  0  0  0  0  0  0
   21.8147   -6.3198  -13.7207 C   0  0  0  0  0  0  0  0  0  0  0  0
   22.5178   -6.7732  -14.8099 C   0  0  0  0  0  0  0  0  0  0  0  0
   22.5107   -8.1341  -15.3151 C   0  0  0  0  0  0  0  0  0  0  0  0
   21.5828   -8.3992  -16.4706 C   0  0  2  0  0  0  0  0  0  0  0  0
   21.8278   -9.7648  -16.8975 N   0  0  0  0  0  0  0  0  0  0  0  0
   21.8678   -7.5173  -17.6487 C   0  0  0  0  0  0  0  0  0  0  0  0
   22.7234   -7.8178  -18.5268 O   0  0  0  0  0  0  0  0  0  0  0  0
   23.3059   -5.8446  -15.4838 C   0  0  0  0  0  0  0  0  0  0  0  0
   23.4025   -4.5356  -15.1119 C   0  0  0  0  0  0  0  0  0  0  0  0
   21.1992   -6.3082  -17.8430 O   0  0  0  0  0  0  0  0  0  0  0  0
  2  1  1  6
  3  2  1  0
  4  2  1  0
  5  4  2  0
  6  4  1  0
  7  6  1  0
  7  8  1  6
  9  8  1  0
 10  9  1  0
 10 11  2  0
 12 22  1  0
 12  7  1  0
 13 12  2  0
 14 10  1  0
 15 16  1  0
 16 17  2  0
 17 18  1  0
 19 20  1  0
 19 18  2  0
 21 20  1  1
 21 23  1  0
 21 22  1  0
 23 27  1  0
 24 23  2  0
 25 19  1  0
 26 25  2  0
 26 16  1  0
M  END
$$$$
