AEY.pdb
     RDKit          3D

 27 27  0  0  1  0  0  0  0  0999 V2000
   18.6607  -10.2716  -20.1489 C   0  0  0  0  0  0  0  0  0  0  0  0
   18.7726  -10.2071  -18.6574 C   0  0  2  0  0  0  0  0  0  0  0  0
   17.5515  -10.5851  -17.9920 N   0  0  0  0  0  0  0  0  0  0  0  0
   19.2904   -8.9029  -18.1535 C   0  0  0  0  0  0  0  0  0  0  0  0
   20.4916   -8.5814  -18.3480 O   0  0  0  0  0  0  0  0  0  0  0  0
   18.3964   -8.0604  -17.4624 N   0  0  0  0  0  0  0  0  0  0  0  0
   18.7963   -6.7399  -17.0911 C   0  0  1  0  0  0  0  0  0  0  0  0
   17.6078   -5.9239  -16.6688 C   0  0  0  0  0  0  0  0  0  0  0  0
   17.1899   -4.8769  -17.6525 C   0  0  0  0  0  0  0  0  0  0  0  0
   16.0203   -4.0978  -17.2018 C   0  0  0  0  0  0  0  0  0  0  0  0
   14.8472   -4.4455  -17.4428 O   0  0  0  0  0  0  0  0  0  0  0  0
   19.6953   -6.7782  -15.8725 C   0  0  0  0  0  0  0  0  0  0  0  0
   19.3123   -7.4877  -14.9138 O   0  0  0  0  0  0  0  0  0  0  0  0
   16.2358   -2.9252  -16.4773 O   0  0  0  0  0  0  0  0  0  0  0  0
   22.6321  -12.4191  -15.1577 O   0  0  0  0  0  0  0  0  0  0  0  0
   22.7057  -11.0369  -15.1055 C   0  0  0  0  0  0  0  0  0  0  0  0
   22.5666  -10.2627  -16.2513 C   0  0  0  0  0  0  0  0  0  0  0  0
   22.6382   -8.8874  -16.2122 C   0  0  0  0  0  0  0  0  0  0  0  0
   22.8521   -8.2384  -15.0210 C   0  0  0  0  0  0  0  0  0  0  0  0
   22.9496   -6.8006  -14.8460 C   0  0  0  0  0  0  0  0  0  0  0  0
   21.6569   -6.0873  -14.5515 C   0  0  2  0  0  0  0  0  0  0  0  0
   20.8991   -6.0690  -15.7894 N   0  0  0  0  0  0  0  0  0  0  0  0
   21.8690   -4.6587  -14.1501 C   0  0  0  0  0  0  0  0  0  0  0  0
   22.4825   -4.3370  -13.0950 O   0  0  0  0  0  0  0  0  0  0  0  0
   22.9890   -9.0318  -13.8854 C   0  0  0  0  0  0  0  0  0  0  0  0
   22.9198  -10.3941  -13.9122 C   0  0  0  0  0  0  0  0  0  0  0  0
   21.3984   -3.5979  -14.9249 O   0  0  0  0  0  0  0  0  0  0  0  0
  2  1  1  6
  3  2  1  0
  4  2  1  0
  5  4  2  0
  6  4  1  0
  7  6  1  0
  7  8  1  1
  9  8  1  0
 10  9  1  0
 10 11  2  0
 12 22  1  0
 12  7  1  0
 13 12  2  0
 14 10  1  0
 15 16  1  0
 16 17  2  0
 17 18  1  0
 19 20  1  0
 19 18  2  0
 21 20  1  6
 21 23  1  0
 21 22  1  0
 23 27  1  0
 24 23  2  0
 25 19  1  0
 26 25  2  0
 26 16  1  0
M  END
$$$$
