AEY.pdb
     RDKit          3D

 27 27  0  0  1  0  0  0  0  0999 V2000
   19.5719  -10.6907  -18.3921 C   0  0  0  0  0  0  0  0  0  0  0  0
   18.9562   -9.4986  -17.7282 C   0  0  2  0  0  0  0  0  0  0  0  0
   17.6636   -9.1662  -18.2715 N   0  0  0  0  0  0  0  0  0  0  0  0
   19.8547   -8.3096  -17.6841 C   0  0  0  0  0  0  0  0  0  0  0  0
   20.9822   -8.3887  -17.1304 O   0  0  0  0  0  0  0  0  0  0  0  0
   19.3979   -7.1148  -18.2762 N   0  0  0  0  0  0  0  0  0  0  0  0
   20.2449   -5.9649  -18.3177 C   0  0  1  0  0  0  0  0  0  0  0  0
   19.6934   -4.9327  -19.2597 C   0  0  0  0  0  0  0  0  0  0  0  0
   20.5937   -3.7614  -19.4964 C   0  0  0  0  0  0  0  0  0  0  0  0
   20.0179   -2.7718  -20.4276 C   0  0  0  0  0  0  0  0  0  0  0  0
   18.8827   -2.8998  -20.9275 O   0  0  0  0  0  0  0  0  0  0  0  0
   20.2802   -5.2800  -16.9670 C   0  0  0  0  0  0  0  0  0  0  0  0
   19.1845   -5.1505  -16.3739 O   0  0  0  0  0  0  0  0  0  0  0  0
   20.7741   -1.6480  -20.7619 O   0  0  0  0  0  0  0  0  0  0  0  0
   19.4441   -9.7342  -12.4676 O   0  0  0  0  0  0  0  0  0  0  0  0
   20.1385   -8.6147  -12.8958 C   0  0  0  0  0  0  0  0  0  0  0  0
   21.2315   -8.7250  -13.7470 C   0  0  0  0  0  0  0  0  0  0  0  0
   21.9303   -7.6192  -14.1795 C   0  0  0  0  0  0  0  0  0  0  0  0
   21.5573   -6.3615  -13.7730 C   0  0  0  0  0  0  0  0  0  0  0  0
   22.2086   -5.1211  -14.1536 C   0  0  0  0  0  0  0  0  0  0  0  0
   21.4154   -4.2151  -15.0571 C   0  0  2  0  0  0  0  0  0  0  0  0
   21.4600   -4.8048  -16.3828 N   0  0  0  0  0  0  0  0  0  0  0  0
   22.0176   -2.8470  -15.1692 C   0  0  0  0  0  0  0  0  0  0  0  0
   22.1251   -2.0725  -14.1783 O   0  0  0  0  0  0  0  0  0  0  0  0
   20.4605   -6.2728  -12.9205 C   0  0  0  0  0  0  0  0  0  0  0  0
   19.7611   -7.3606  -12.4860 C   0  0  0  0  0  0  0  0  0  0  0  0
   22.4970   -2.3498  -16.3816 O   0  0  0  0  0  0  0  0  0  0  0  0
  2  1  1  6
  3  2  1  0
  4  2  1  0
  5  4  2  0
  6  4  1  0
  7  6  1  0
  7  8  1  6
  9  8  1  0
 10  9  1  0
 10 11  2  0
 12 22  1  0
 12  7  1  0
 13 12  2  0
 14 10  1  0
 15 16  1  0
 16 17  2  0
 17 18  1  0
 19 20  1  0
 19 18  2  0
 21 20  1  1
 21 23  1  0
 21 22  1  0
 23 27  1  0
 24 23  2  0
 25 19  1  0
 26 25  2  0
 26 16  1  0
M  END
$$$$
