AEY.pdb
     RDKit          3D

 27 27  0  0  1  0  0  0  0  0999 V2000
   22.7135  -10.4382  -22.4237 C   0  0  0  0  0  0  0  0  0  0  0  0
   22.5217  -10.7469  -20.9714 C   0  0  2  0  0  0  0  0  0  0  0  0
   21.5491  -11.7865  -20.7484 N   0  0  0  0  0  0  0  0  0  0  0  0
   22.2390   -9.5436  -20.1377 C   0  0  0  0  0  0  0  0  0  0  0  0
   23.0566   -8.5873  -20.1092 O   0  0  0  0  0  0  0  0  0  0  0  0
   21.0409   -9.5215  -19.3955 N   0  0  0  0  0  0  0  0  0  0  0  0
   20.7378   -8.4066  -18.5550 C   0  0  1  0  0  0  0  0  0  0  0  0
   19.2528   -8.1974  -18.4650 C   0  0  0  0  0  0  0  0  0  0  0  0
   18.8371   -7.0467  -17.6039 C   0  0  0  0  0  0  0  0  0  0  0  0
   17.3735   -6.8644  -17.5541 C   0  0  0  0  0  0  0  0  0  0  0  0
   16.6779   -6.7240  -18.5795 O   0  0  0  0  0  0  0  0  0  0  0  0
   21.1799   -8.6765  -17.1315 C   0  0  0  0  0  0  0  0  0  0  0  0
   20.9876   -9.8342  -16.6934 O   0  0  0  0  0  0  0  0  0  0  0  0
   16.7428   -6.8484  -16.3097 O   0  0  0  0  0  0  0  0  0  0  0  0
   27.3861  -11.2232  -17.0290 O   0  0  0  0  0  0  0  0  0  0  0  0
   26.4646  -10.3274  -16.5122 C   0  0  0  0  0  0  0  0  0  0  0  0
   26.0837   -9.1941  -17.2209 C   0  0  0  0  0  0  0  0  0  0  0  0
   25.1686   -8.2957  -16.7175 C   0  0  0  0  0  0  0  0  0  0  0  0
   24.6019   -8.5020  -15.4836 C   0  0  0  0  0  0  0  0  0  0  0  0
   23.6311   -7.6339  -14.8422 C   0  0  0  0  0  0  0  0  0  0  0  0
   22.1908   -8.0521  -14.9732 C   0  0  2  0  0  0  0  0  0  0  0  0
   21.7763   -7.7044  -16.3201 N   0  0  0  0  0  0  0  0  0  0  0  0
   21.2900   -7.3072  -14.0348 C   0  0  0  0  0  0  0  0  0  0  0  0
   20.6466   -6.2803  -14.3878 O   0  0  0  0  0  0  0  0  0  0  0  0
   24.9970   -9.6425  -14.7901 C   0  0  0  0  0  0  0  0  0  0  0  0
   25.9020  -10.5388  -15.2786 C   0  0  0  0  0  0  0  0  0  0  0  0
   21.1099   -7.7098  -12.7109 O   0  0  0  0  0  0  0  0  0  0  0  0
  2  1  1  6
  3  2  1  0
  4  2  1  0
  5  4  2  0
  6  4  1  0
  7  6  1  0
  7  8  1  1
  9  8  1  0
 10  9  1  0
 10 11  2  0
 12 22  1  0
 12  7  1  0
 13 12  2  0
 14 10  1  0
 15 16  1  0
 16 17  2  0
 17 18  1  0
 19 20  1  0
 19 18  2  0
 21 20  1  1
 21 23  1  0
 21 22  1  0
 23 27  1  0
 24 23  2  0
 25 19  1  0
 26 25  2  0
 26 16  1  0
M  END
$$$$
