AEY.pdb
     RDKit          3D

 27 27  0  0  1  0  0  0  0  0999 V2000
   37.8793  -10.1103   -6.6594 C   0  0  0  0  0  0  0  0  0  0  0  0
   39.0391   -9.7678   -7.5419 C   0  0  2  0  0  0  0  0  0  0  0  0
   40.2575  -10.4216   -7.1366 N   0  0  0  0  0  0  0  0  0  0  0  0
   39.2380   -8.3014   -7.7238 C   0  0  0  0  0  0  0  0  0  0  0  0
   40.0786   -7.6847   -7.0187 O   0  0  0  0  0  0  0  0  0  0  0  0
   38.4600   -7.6457   -8.6992 N   0  0  0  0  0  0  0  0  0  0  0  0
   38.6235   -6.2444   -8.9248 C   0  0  1  0  0  0  0  0  0  0  0  0
   37.9465   -5.8290  -10.1999 C   0  0  0  0  0  0  0  0  0  0  0  0
   38.1653   -4.3997  -10.5841 C   0  0  0  0  0  0  0  0  0  0  0  0
   37.5023   -4.0364  -11.8516 C   0  0  0  0  0  0  0  0  0  0  0  0
   37.9637   -4.3516  -12.9664 O   0  0  0  0  0  0  0  0  0  0  0  0
   37.9324   -5.4456   -7.8390 C   0  0  0  0  0  0  0  0  0  0  0  0
   36.7364   -5.7344   -7.6038 O   0  0  0  0  0  0  0  0  0  0  0  0
   36.3116   -3.3110  -11.8003 O   0  0  0  0  0  0  0  0  0  0  0  0
   36.0805   -1.3997   -0.3646 O   0  0  0  0  0  0  0  0  0  0  0  0
   36.6454   -2.0469   -1.4512 C   0  0  0  0  0  0  0  0  0  0  0  0
   37.7656   -1.5342   -2.0945 C   0  0  0  0  0  0  0  0  0  0  0  0
   38.3362   -2.1684   -3.1763 C   0  0  0  0  0  0  0  0  0  0  0  0
   37.8031   -3.3411   -3.6523 C   0  0  0  0  0  0  0  0  0  0  0  0
   38.3066   -4.1033   -4.7806 C   0  0  0  0  0  0  0  0  0  0  0  0
   37.8159   -3.6690   -6.1359 C   0  0  2  0  0  0  0  0  0  0  0  0
   38.5690   -4.4302   -7.1159 N   0  0  0  0  0  0  0  0  0  0  0  0
   38.0887   -2.2202   -6.4071 C   0  0  0  0  0  0  0  0  0  0  0  0
   39.1485   -1.8254   -6.9676 O   0  0  0  0  0  0  0  0  0  0  0  0
   36.6814   -3.8376   -2.9943 C   0  0  0  0  0  0  0  0  0  0  0  0
   36.1081   -3.2184   -1.9223 C   0  0  0  0  0  0  0  0  0  0  0  0
   37.1813   -1.2207   -6.0543 O   0  0  0  0  0  0  0  0  0  0  0  0
  2  1  1  1
  3  2  1  0
  4  2  1  0
  5  4  2  0
  6  4  1  0
  7  6  1  0
  7  8  1  6
  9  8  1  0
 10  9  1  0
 10 11  2  0
 12 22  1  0
 12  7  1  0
 13 12  2  0
 14 10  1  0
 15 16  1  0
 16 17  2  0
 17 18  1  0
 19 20  1  0
 19 18  2  0
 21 20  1  1
 21 23  1  0
 21 22  1  0
 23 27  1  0
 24 23  2  0
 25 19  1  0
 26 25  2  0
 26 16  1  0
M  END
$$$$
