TYY.pdb
     RDKit          3D

 32 33  0  0  1  0  0  0  0  0999 V2000
   30.7850  -38.3553   -2.5029 C   0  0  0  0  0  0  0  0  0  0  0  0
   30.5683  -37.2874   -3.5555 C   0  0  1  0  0  0  0  0  0  0  0  0
   29.9975  -36.1814   -2.9276 O   0  0  0  0  0  0  0  0  0  0  0  0
   31.9135  -36.9625   -4.1481 C   0  0  2  0  0  0  0  0  0  0  0  0
   32.3736  -38.0669   -4.9326 N   0  0  0  0  0  0  0  0  0  0  0  0
   32.8981  -36.4989   -3.1623 C   0  0  0  0  0  0  0  0  0  0  0  0
   33.3140  -37.3460   -2.3152 O   0  0  0  0  0  0  0  0  0  0  0  0
   38.9416  -31.5746    1.1224 O   0  0  0  0  0  0  0  0  0  0  0  0
   37.9361  -32.0282    0.2522 C   0  0  0  0  0  0  0  0  0  0  0  0
   38.2082  -32.9724   -0.7076 C   0  0  0  0  0  0  0  0  0  0  0  0
   37.2005  -33.4153   -1.5666 C   0  0  0  0  0  0  0  0  0  0  0  0
   35.9219  -32.9144   -1.4658 C   0  0  0  0  0  0  0  0  0  0  0  0
   34.8726  -33.3874   -2.3685 C   0  0  0  0  0  0  0  0  0  0  0  0
   34.3126  -34.7519   -2.0229 C   0  0  2  0  0  0  0  0  0  0  0  0
   33.4180  -35.1975   -3.0778 N   0  0  0  0  0  0  0  0  0  0  0  0
   33.6482  -34.6748   -0.7177 C   0  0  0  0  0  0  0  0  0  0  0  0
   32.4940  -34.1774   -0.6712 O   0  0  0  0  0  0  0  0  0  0  0  0
   35.6853  -31.9694   -0.4925 C   0  0  0  0  0  0  0  0  0  0  0  0
   36.6734  -31.5296    0.3560 C   0  0  0  0  0  0  0  0  0  0  0  0
   36.5094  -40.6871    2.1042 O   0  0  0  0  0  0  0  0  0  0  0  0
   35.6560  -39.5917    2.1825 C   0  0  0  0  0  0  0  0  0  0  0  0
   35.7010  -38.7226    3.2273 C   0  0  0  0  0  0  0  0  0  0  0  0
   34.8305  -37.6336    3.2750 C   0  0  0  0  0  0  0  0  0  0  0  0
   33.9091  -37.4107    2.2732 C   0  0  0  0  0  0  0  0  0  0  0  0
   32.9610  -36.2825    2.2535 C   0  0  0  0  0  0  0  0  0  0  0  0
   33.5663  -34.9844    1.7941 C   0  0  2  0  0  0  0  0  0  0  0  0
   34.2109  -35.1201    0.4987 N   0  0  0  0  0  0  0  0  0  0  0  0
   34.6142  -34.5901    2.7669 C   0  0  0  0  0  0  0  0  0  0  0  0
   35.9634  -34.4588    2.3990 O   0  0  0  0  0  0  0  0  0  0  0  0
   33.8776  -38.3055    1.2178 C   0  0  0  0  0  0  0  0  0  0  0  0
   34.7405  -39.3674    1.1905 C   0  0  0  0  0  0  0  0  0  0  0  0
   34.3733  -34.3457    3.9864 O   0  0  0  0  0  0  0  0  0  0  0  0
  2  3  1  0
  2  1  1  1
  4  5  1  1
  4  2  1  0
  6  4  1  0
  7  6  2  0
  9 10  2  0
  9  8  1  0
 11 10  1  0
 12 11  2  0
 13 12  1  0
 14 13  1  6
 14 16  1  0
 14 15  1  0
 15  6  1  0
 16 17  2  0
 18 12  1  0
 18 19  2  0
 19  9  1  0
 21 22  2  0
 21 20  1  0
 23 22  1  0
 24 23  2  0
 26 25  1  1
 25 24  1  0
 27 26  1  0
 27 16  1  0
 28 29  1  0
 28 26  1  0
 30 24  1  0
 30 31  2  0
 31 21  1  0
 32 28  2  0
M  END
$$$$
