TYY.pdb
     RDKit          3D

 32 33  0  0  1  0  0  0  0  0999 V2000
   25.9632  -20.9189  -17.8701 C   0  0  0  0  0  0  0  0  0  0  0  0
   25.4105  -20.8933  -16.4596 C   0  0  1  0  0  0  0  0  0  0  0  0
   24.0256  -21.0292  -16.5433 O   0  0  0  0  0  0  0  0  0  0  0  0
   26.0410  -22.0365  -15.7102 C   0  0  2  0  0  0  0  0  0  0  0  0
   25.7307  -23.2706  -16.3641 N   0  0  0  0  0  0  0  0  0  0  0  0
   25.7321  -22.0452  -14.2747 C   0  0  0  0  0  0  0  0  0  0  0  0
   24.6995  -22.6829  -13.9073 O   0  0  0  0  0  0  0  0  0  0  0  0
   25.8192  -19.9693   -5.6004 O   0  0  0  0  0  0  0  0  0  0  0  0
   26.1481  -20.1486   -6.9546 C   0  0  0  0  0  0  0  0  0  0  0  0
   26.2280  -21.4070   -7.4995 C   0  0  0  0  0  0  0  0  0  0  0  0
   26.5557  -21.5723   -8.8466 C   0  0  0  0  0  0  0  0  0  0  0  0
   26.8031  -20.4803   -9.6480 C   0  0  0  0  0  0  0  0  0  0  0  0
   27.1425  -20.6642  -11.0589 C   0  0  0  0  0  0  0  0  0  0  0  0
   26.0234  -21.2332  -11.9068 C   0  0  2  0  0  0  0  0  0  0  0  0
   26.4829  -21.4073  -13.2744 N   0  0  0  0  0  0  0  0  0  0  0  0
   24.8598  -20.3454  -11.8134 C   0  0  0  0  0  0  0  0  0  0  0  0
   24.9981  -19.1502  -12.1797 O   0  0  0  0  0  0  0  0  0  0  0  0
   26.7140  -19.2344   -9.0683 C   0  0  0  0  0  0  0  0  0  0  0  0
   26.3918  -19.0655   -7.7426 C   0  0  0  0  0  0  0  0  0  0  0  0
   19.4044  -23.5261  -15.5371 O   0  0  0  0  0  0  0  0  0  0  0  0
   20.0747  -22.5250  -14.8423 C   0  0  0  0  0  0  0  0  0  0  0  0
   21.3848  -22.2453  -15.0763 C   0  0  0  0  0  0  0  0  0  0  0  0
   22.0272  -21.2343  -14.3615 C   0  0  0  0  0  0  0  0  0  0  0  0
   21.3577  -20.4975  -13.4069 C   0  0  0  0  0  0  0  0  0  0  0  0
   21.9680  -19.4143  -12.6156 C   0  0  0  0  0  0  0  0  0  0  0  0
   22.4414  -19.8448  -11.2544 C   0  0  2  0  0  0  0  0  0  0  0  0
   23.5874  -20.7344  -11.3399 N   0  0  0  0  0  0  0  0  0  0  0  0
   21.3465  -20.6007  -10.5991 C   0  0  0  0  0  0  0  0  0  0  0  0
   20.1168  -20.0041  -10.2750 O   0  0  0  0  0  0  0  0  0  0  0  0
   20.0251  -20.7960  -13.1822 C   0  0  0  0  0  0  0  0  0  0  0  0
   19.4138  -21.7920  -13.8944 C   0  0  0  0  0  0  0  0  0  0  0  0
   21.4377  -21.8251  -10.2868 O   0  0  0  0  0  0  0  0  0  0  0  0
  2  3  1  0
  2  1  1  6
  4  5  1  6
  4  2  1  0
  6  4  1  0
  7  6  2  0
  9 10  2  0
  9  8  1  0
 11 10  1  0
 12 11  2  0
 13 12  1  0
 14 13  1  1
 14 16  1  0
 14 15  1  0
 15  6  1  0
 16 17  2  0
 18 12  1  0
 18 19  2  0
 19  9  1  0
 21 22  2  0
 21 20  1  0
 23 22  1  0
 24 23  2  0
 26 25  1  6
 25 24  1  0
 27 26  1  0
 27 16  1  0
 28 29  1  0
 28 26  1  0
 30 24  1  0
 30 31  2  0
 31 21  1  0
 32 28  2  0
M  END
$$$$
