TYY.pdb
     RDKit          3D

 32 33  0  0  1  0  0  0  0  0999 V2000
   26.8850  -12.2932  -17.6742 C   0  0  0  0  0  0  0  0  0  0  0  0
   25.6568  -11.4679  -17.3489 C   0  0  1  0  0  0  0  0  0  0  0  0
   24.7593  -12.2910  -16.6701 O   0  0  0  0  0  0  0  0  0  0  0  0
   26.1070  -10.3097  -16.4991 C   0  0  2  0  0  0  0  0  0  0  0  0
   26.8104  -10.7980  -15.3530 N   0  0  0  0  0  0  0  0  0  0  0  0
   25.0311   -9.3682  -16.1639 C   0  0  0  0  0  0  0  0  0  0  0  0
   24.5606   -9.4199  -14.9875 O   0  0  0  0  0  0  0  0  0  0  0  0
   23.0576   -1.2781  -15.1792 O   0  0  0  0  0  0  0  0  0  0  0  0
   23.1175   -2.5419  -15.7901 C   0  0  0  0  0  0  0  0  0  0  0  0
   21.9698   -3.2072  -16.1466 C   0  0  0  0  0  0  0  0  0  0  0  0
   22.0422   -4.4628  -16.7531 C   0  0  0  0  0  0  0  0  0  0  0  0
   23.2612   -5.0524  -17.0029 C   0  0  0  0  0  0  0  0  0  0  0  0
   23.3263   -6.3667  -17.6417 C   0  0  0  0  0  0  0  0  0  0  0  0
   23.3814   -7.5335  -16.6771 C   0  0  2  0  0  0  0  0  0  0  0  0
   24.4792   -8.4158  -17.0353 N   0  0  0  0  0  0  0  0  0  0  0  0
   22.0842   -8.2178  -16.6865 C   0  0  0  0  0  0  0  0  0  0  0  0
   21.8712   -9.0670  -17.5895 O   0  0  0  0  0  0  0  0  0  0  0  0
   24.3905   -4.3569  -16.6322 C   0  0  0  0  0  0  0  0  0  0  0  0
   24.3254   -3.1206  -16.0348 C   0  0  0  0  0  0  0  0  0  0  0  0
   14.5484  -12.3133  -15.0333 O   0  0  0  0  0  0  0  0  0  0  0  0
   15.7682  -11.6489  -14.9634 C   0  0  0  0  0  0  0  0  0  0  0  0
   15.9282  -10.5228  -14.2181 C   0  0  0  0  0  0  0  0  0  0  0  0
   17.1657   -9.8807  -14.1698 C   0  0  0  0  0  0  0  0  0  0  0  0
   18.2505  -10.3657  -14.8699 C   0  0  0  0  0  0  0  0  0  0  0  0
   19.5868   -9.7443  -14.8649 C   0  0  0  0  0  0  0  0  0  0  0  0
   19.7319   -8.6007  -15.8311 C   0  0  2  0  0  0  0  0  0  0  0  0
   21.0498   -7.9933  -15.7516 N   0  0  0  0  0  0  0  0  0  0  0  0
   18.7441   -7.5561  -15.4667 C   0  0  0  0  0  0  0  0  0  0  0  0
   19.1163   -6.3754  -14.8029 O   0  0  0  0  0  0  0  0  0  0  0  0
   18.0691  -11.5126  -15.6230 C   0  0  0  0  0  0  0  0  0  0  0  0
   16.8467  -12.1271  -15.6567 C   0  0  0  0  0  0  0  0  0  0  0  0
   17.5071   -7.6498  -15.7237 O   0  0  0  0  0  0  0  0  0  0  0  0
  2  3  1  0
  2  1  1  1
  4  5  1  1
  4  2  1  0
  6  4  1  0
  7  6  2  0
  9 10  2  0
  9  8  1  0
 11 10  1  0
 12 11  2  0
 13 12  1  0
 14 13  1  6
 14 16  1  0
 14 15  1  0
 15  6  1  0
 16 17  2  0
 18 12  1  0
 18 19  2  0
 19  9  1  0
 21 22  2  0
 21 20  1  0
 23 22  1  0
 24 23  2  0
 26 25  1  1
 25 24  1  0
 27 26  1  0
 27 16  1  0
 28 29  1  0
 28 26  1  0
 30 24  1  0
 30 31  2  0
 31 21  1  0
 32 28  2  0
M  END
$$$$
