TYY.pdb
     RDKit          3D

 32 33  0  0  1  0  0  0  0  0999 V2000
   28.5462  -20.3122  -18.6043 C   0  0  0  0  0  0  0  0  0  0  0  0
   27.5963  -20.4764  -17.4355 C   0  0  1  0  0  0  0  0  0  0  0  0
   26.3131  -20.6507  -17.9518 O   0  0  0  0  0  0  0  0  0  0  0  0
   28.0527  -21.6783  -16.6522 C   0  0  2  0  0  0  0  0  0  0  0  0
   28.0575  -22.8315  -17.4990 N   0  0  0  0  0  0  0  0  0  0  0  0
   27.3175  -21.8810  -15.3974 C   0  0  0  0  0  0  0  0  0  0  0  0
   26.2461  -22.5568  -15.4553 O   0  0  0  0  0  0  0  0  0  0  0  0
   24.4440  -20.3256   -7.0939 O   0  0  0  0  0  0  0  0  0  0  0  0
   25.2208  -20.4607   -8.2569 C   0  0  0  0  0  0  0  0  0  0  0  0
   25.1756  -21.6121   -9.0045 C   0  0  0  0  0  0  0  0  0  0  0  0
   25.9523  -21.7345  -10.1583 C   0  0  0  0  0  0  0  0  0  0  0  0
   26.7732  -20.7063  -10.5641 C   0  0  0  0  0  0  0  0  0  0  0  0
   27.5804  -20.8431  -11.7762 C   0  0  0  0  0  0  0  0  0  0  0  0
   26.8282  -21.3806  -12.9764 C   0  0  2  0  0  0  0  0  0  0  0  0
   27.7001  -21.3901  -14.1389 N   0  0  0  0  0  0  0  0  0  0  0  0
   25.6242  -20.5691  -13.1833 C   0  0  0  0  0  0  0  0  0  0  0  0
   25.7704  -19.3915  -13.6001 O   0  0  0  0  0  0  0  0  0  0  0  0
   26.7933  -19.5671   -9.7906 C   0  0  0  0  0  0  0  0  0  0  0  0
   26.0309  -19.4410   -8.6537 C   0  0  0  0  0  0  0  0  0  0  0  0
   21.5190  -25.6741  -16.1698 O   0  0  0  0  0  0  0  0  0  0  0  0
   21.8409  -24.3703  -15.8080 C   0  0  0  0  0  0  0  0  0  0  0  0
   23.0632  -23.8355  -16.0712 C   0  0  0  0  0  0  0  0  0  0  0  0
   23.3535  -22.5242  -15.6945 C   0  0  0  0  0  0  0  0  0  0  0  0
   22.4178  -21.7414  -15.0510 C   0  0  0  0  0  0  0  0  0  0  0  0
   22.6507  -20.3495  -14.6263 C   0  0  0  0  0  0  0  0  0  0  0  0
   23.1169  -20.2156  -13.2025 C   0  0  2  0  0  0  0  0  0  0  0  0
   24.3045  -21.0137  -12.9481 N   0  0  0  0  0  0  0  0  0  0  0  0
   22.0458  -20.7262  -12.3127 C   0  0  0  0  0  0  0  0  0  0  0  0
   20.7834  -20.1149  -12.2368 O   0  0  0  0  0  0  0  0  0  0  0  0
   21.1795  -22.3023  -14.7914 C   0  0  0  0  0  0  0  0  0  0  0  0
   20.9152  -23.5909  -15.1693 C   0  0  0  0  0  0  0  0  0  0  0  0
   22.1880  -21.7385  -11.5645 O   0  0  0  0  0  0  0  0  0  0  0  0
  2  3  1  0
  2  1  1  6
  4  5  1  6
  4  2  1  0
  6  4  1  0
  7  6  2  0
  9 10  2  0
  9  8  1  0
 11 10  1  0
 12 11  2  0
 13 12  1  0
 14 13  1  1
 14 16  1  0
 14 15  1  0
 15  6  1  0
 16 17  2  0
 18 12  1  0
 18 19  2  0
 19  9  1  0
 21 22  2  0
 21 20  1  0
 23 22  1  0
 24 23  2  0
 26 25  1  6
 25 24  1  0
 27 26  1  0
 27 16  1  0
 28 29  1  0
 28 26  1  0
 30 24  1  0
 30 31  2  0
 31 21  1  0
 32 28  2  0
M  END
$$$$
