TYY.pdb
     RDKit          3D

 32 33  0  0  1  0  0  0  0  0999 V2000
   23.1748  -11.5830  -20.4367 C   0  0  0  0  0  0  0  0  0  0  0  0
   22.9553  -12.9419  -19.8038 C   0  0  1  0  0  0  0  0  0  0  0  0
   23.4817  -13.9024  -20.6663 O   0  0  0  0  0  0  0  0  0  0  0  0
   23.6612  -12.9365  -18.4741 C   0  0  2  0  0  0  0  0  0  0  0  0
   23.7234  -14.2687  -17.9564 N   0  0  0  0  0  0  0  0  0  0  0  0
   23.1143  -11.9656  -17.5178 C   0  0  0  0  0  0  0  0  0  0  0  0
   21.9322  -12.1624  -17.1032 O   0  0  0  0  0  0  0  0  0  0  0  0
   22.2177   -4.1226  -13.3518 O   0  0  0  0  0  0  0  0  0  0  0  0
   22.7117   -5.3154  -13.9059 C   0  0  0  0  0  0  0  0  0  0  0  0
   22.4639   -6.5263  -13.3067 C   0  0  0  0  0  0  0  0  0  0  0  0
   22.9603   -7.7049  -13.8671 C   0  0  0  0  0  0  0  0  0  0  0  0
   23.7037   -7.6725  -15.0256 C   0  0  0  0  0  0  0  0  0  0  0  0
   24.2165   -8.9133  -15.6063 C   0  0  0  0  0  0  0  0  0  0  0  0
   23.1571   -9.8077  -16.2168 C   0  0  2  0  0  0  0  0  0  0  0  0
   23.7891  -10.8381  -17.0235 N   0  0  0  0  0  0  0  0  0  0  0  0
   22.2264   -8.9796  -16.9909 C   0  0  0  0  0  0  0  0  0  0  0  0
   22.6143   -8.5372  -18.1025 O   0  0  0  0  0  0  0  0  0  0  0  0
   23.9325   -6.4415  -15.5988 C   0  0  0  0  0  0  0  0  0  0  0  0
   23.4464   -5.2778  -15.0516 C   0  0  0  0  0  0  0  0  0  0  0  0
   16.0679  -11.9798  -14.5007 O   0  0  0  0  0  0  0  0  0  0  0  0
   16.8030  -11.1842  -15.3731 C   0  0  0  0  0  0  0  0  0  0  0  0
   17.8900  -11.6632  -16.0350 C   0  0  0  0  0  0  0  0  0  0  0  0
   18.6053  -10.8383  -16.9032 C   0  0  0  0  0  0  0  0  0  0  0  0
   18.2331   -9.5267  -17.1122 C   0  0  0  0  0  0  0  0  0  0  0  0
   18.9366   -8.5980  -18.0147 C   0  0  0  0  0  0  0  0  0  0  0  0
   20.0165   -7.7947  -17.3431 C   0  0  2  0  0  0  0  0  0  0  0  0
   20.9190   -8.6396  -16.5791 N   0  0  0  0  0  0  0  0  0  0  0  0
   19.3744   -6.8605  -16.3868 C   0  0  0  0  0  0  0  0  0  0  0  0
   18.5548   -5.8023  -16.8127 O   0  0  0  0  0  0  0  0  0  0  0  0
   17.1245   -9.0566  -16.4301 C   0  0  0  0  0  0  0  0  0  0  0  0
   16.4368   -9.8825  -15.5829 C   0  0  0  0  0  0  0  0  0  0  0  0
   19.5155   -6.9464  -15.1308 O   0  0  0  0  0  0  0  0  0  0  0  0
  2  3  1  0
  2  1  1  6
  4  5  1  1
  4  2  1  0
  6  4  1  0
  7  6  2  0
  9 10  2  0
  9  8  1  0
 11 10  1  0
 12 11  2  0
 13 12  1  0
 14 13  1  6
 14 16  1  0
 14 15  1  0
 15  6  1  0
 16 17  2  0
 18 12  1  0
 18 19  2  0
 19  9  1  0
 21 22  2  0
 21 20  1  0
 23 22  1  0
 24 23  2  0
 26 25  1  1
 25 24  1  0
 27 26  1  0
 27 16  1  0
 28 29  1  0
 28 26  1  0
 30 24  1  0
 30 31  2  0
 31 21  1  0
 32 28  2  0
M  END
$$$$
