TYY.pdb
     RDKit          3D

 32 33  0  0  1  0  0  0  0  0999 V2000
   23.0857  -12.9965  -17.5621 C   0  0  0  0  0  0  0  0  0  0  0  0
   22.4553  -11.8277  -16.8326 C   0  0  1  0  0  0  0  0  0  0  0  0
   21.5471  -12.3431  -15.9091 O   0  0  0  0  0  0  0  0  0  0  0  0
   23.5666  -11.0668  -16.1602 C   0  0  2  0  0  0  0  0  0  0  0  0
   24.2642  -11.9303  -15.2577 N   0  0  0  0  0  0  0  0  0  0  0  0
   23.1321   -9.8077  -15.5419 C   0  0  0  0  0  0  0  0  0  0  0  0
   22.7355   -9.8589  -14.3386 O   0  0  0  0  0  0  0  0  0  0  0  0
   21.2569   -1.1768  -14.2913 O   0  0  0  0  0  0  0  0  0  0  0  0
   21.7906   -2.4110  -14.6991 C   0  0  0  0  0  0  0  0  0  0  0  0
   22.1118   -2.6394  -16.0149 C   0  0  0  0  0  0  0  0  0  0  0  0
   22.6415   -3.8700  -16.4079 C   0  0  0  0  0  0  0  0  0  0  0  0
   22.8498   -4.8712  -15.4859 C   0  0  0  0  0  0  0  0  0  0  0  0
   23.4082   -6.1558  -15.9073 C   0  0  0  0  0  0  0  0  0  0  0  0
   22.5472   -7.3566  -15.5732 C   0  0  2  0  0  0  0  0  0  0  0  0
   23.1184   -8.5522  -16.1700 N   0  0  0  0  0  0  0  0  0  0  0  0
   21.1775   -7.0996  -16.0304 C   0  0  0  0  0  0  0  0  0  0  0  0
   20.9232   -7.2584  -17.2518 O   0  0  0  0  0  0  0  0  0  0  0  0
   22.5163   -4.6073  -14.1761 C   0  0  0  0  0  0  0  0  0  0  0  0
   21.9945   -3.3976  -13.7833 C   0  0  0  0  0  0  0  0  0  0  0  0
   17.9750  -12.5634  -17.1647 O   0  0  0  0  0  0  0  0  0  0  0  0
   17.9438  -11.2876  -16.6117 C   0  0  0  0  0  0  0  0  0  0  0  0
   18.5146  -11.0153  -15.4078 C   0  0  0  0  0  0  0  0  0  0  0  0
   18.4653   -9.7244  -14.8815 C   0  0  0  0  0  0  0  0  0  0  0  0
   17.8424   -8.6985  -15.5613 C   0  0  0  0  0  0  0  0  0  0  0  0
   17.7531   -7.3117  -15.0708 C   0  0  0  0  0  0  0  0  0  0  0  0
   18.7751   -6.3851  -15.6704 C   0  0  2  0  0  0  0  0  0  0  0  0
   20.1160   -6.6844  -15.1966 N   0  0  0  0  0  0  0  0  0  0  0  0
   18.4564   -5.0015  -15.2417 C   0  0  0  0  0  0  0  0  0  0  0  0
   19.3445   -4.2361  -14.4680 O   0  0  0  0  0  0  0  0  0  0  0  0
   17.2671   -8.9942  -16.7848 C   0  0  0  0  0  0  0  0  0  0  0  0
   17.3266  -10.2675  -17.2832 C   0  0  0  0  0  0  0  0  0  0  0  0
   17.3734   -4.4147  -15.5375 O   0  0  0  0  0  0  0  0  0  0  0  0
  2  3  1  0
  2  1  1  1
  4  5  1  1
  4  2  1  0
  6  4  1  0
  7  6  2  0
  9 10  2  0
  9  8  1  0
 11 10  1  0
 12 11  2  0
 13 12  1  0
 14 13  1  6
 14 16  1  0
 14 15  1  0
 15  6  1  0
 16 17  2  0
 18 12  1  0
 18 19  2  0
 19  9  1  0
 21 22  2  0
 21 20  1  0
 23 22  1  0
 24 23  2  0
 26 25  1  1
 25 24  1  0
 27 26  1  0
 27 16  1  0
 28 29  1  0
 28 26  1  0
 30 24  1  0
 30 31  2  0
 31 21  1  0
 32 28  2  0
M  END
$$$$
