TYY.pdb
     RDKit          3D

 32 33  0  0  1  0  0  0  0  0999 V2000
   22.0484  -13.4514  -16.6833 C   0  0  0  0  0  0  0  0  0  0  0  0
   23.1144  -14.0004  -17.6094 C   0  0  1  0  0  0  0  0  0  0  0  0
   23.0183  -15.3910  -17.5908 O   0  0  0  0  0  0  0  0  0  0  0  0
   22.8491  -13.4392  -18.9809 C   0  0  2  0  0  0  0  0  0  0  0  0
   23.7413  -14.0365  -19.9265 N   0  0  0  0  0  0  0  0  0  0  0  0
   22.8473  -11.9716  -19.0296 C   0  0  0  0  0  0  0  0  0  0  0  0
   23.9736  -11.3913  -19.0802 O   0  0  0  0  0  0  0  0  0  0  0  0
   20.5710   -3.4740  -20.0801 O   0  0  0  0  0  0  0  0  0  0  0  0
   20.6153   -4.8780  -20.0507 C   0  0  0  0  0  0  0  0  0  0  0  0
   21.5309   -5.5700  -20.8054 C   0  0  0  0  0  0  0  0  0  0  0  0
   21.5651   -6.9653  -20.7677 C   0  0  0  0  0  0  0  0  0  0  0  0
   20.6845   -7.6678  -19.9760 C   0  0  0  0  0  0  0  0  0  0  0  0
   20.7307   -9.1295  -19.9411 C   0  0  0  0  0  0  0  0  0  0  0  0
   21.7478   -9.7045  -18.9769 C   0  0  2  0  0  0  0  0  0  0  0  0
   21.7043  -11.1563  -19.0247 N   0  0  0  0  0  0  0  0  0  0  0  0
   21.4791   -9.1779  -17.6348 C   0  0  0  0  0  0  0  0  0  0  0  0
   20.4613   -9.5996  -17.0280 O   0  0  0  0  0  0  0  0  0  0  0  0
   19.7805   -6.9417  -19.2331 C   0  0  0  0  0  0  0  0  0  0  0  0
   19.7422   -5.5679  -19.2662 C   0  0  0  0  0  0  0  0  0  0  0  0
   26.8081  -11.8716  -16.4876 O   0  0  0  0  0  0  0  0  0  0  0  0
   25.8820  -10.9270  -16.0582 C   0  0  0  0  0  0  0  0  0  0  0  0
   25.8396   -9.6746  -16.5864 C   0  0  0  0  0  0  0  0  0  0  0  0
   24.8977   -8.7510  -16.1330 C   0  0  0  0  0  0  0  0  0  0  0  0
   23.9921   -9.0795  -15.1459 C   0  0  0  0  0  0  0  0  0  0  0  0
   22.9683   -8.1596  -14.6193 C   0  0  0  0  0  0  0  0  0  0  0  0
   21.9844   -7.6847  -15.6532 C   0  0  2  0  0  0  0  0  0  0  0  0
   22.2825   -8.2267  -16.9683 N   0  0  0  0  0  0  0  0  0  0  0  0
   22.0904   -6.2086  -15.7523 C   0  0  0  0  0  0  0  0  0  0  0  0
   21.6926   -5.3594  -14.7065 O   0  0  0  0  0  0  0  0  0  0  0  0
   24.0501  -10.3584  -14.6201 C   0  0  0  0  0  0  0  0  0  0  0  0
   24.9821  -11.2493  -15.0791 C   0  0  0  0  0  0  0  0  0  0  0  0
   22.5418   -5.6116  -16.7744 O   0  0  0  0  0  0  0  0  0  0  0  0
  2  3  1  0
  2  1  1  1
  4  5  1  6
  4  2  1  0
  6  4  1  0
  7  6  2  0
  9 10  2  0
  9  8  1  0
 11 10  1  0
 12 11  2  0
 13 12  1  0
 14 13  1  6
 14 16  1  0
 14 15  1  0
 15  6  1  0
 16 17  2  0
 18 12  1  0
 18 19  2  0
 19  9  1  0
 21 22  2  0
 21 20  1  0
 23 22  1  0
 24 23  2  0
 26 25  1  1
 25 24  1  0
 27 26  1  0
 27 16  1  0
 28 29  1  0
 28 26  1  0
 30 24  1  0
 30 31  2  0
 31 21  1  0
 32 28  2  0
M  END
$$$$
