TYY.pdb
     RDKit          3D

 32 33  0  0  1  0  0  0  0  0999 V2000
   22.5691   -9.1861  -21.7672 C   0  0  0  0  0  0  0  0  0  0  0  0
   21.8501   -8.5133  -20.6157 C   0  0  1  0  0  0  0  0  0  0  0  0
   21.1142   -7.4503  -21.1371 O   0  0  0  0  0  0  0  0  0  0  0  0
   20.9632   -9.5476  -19.9754 C   0  0  2  0  0  0  0  0  0  0  0  0
   19.8749   -9.8575  -20.8509 N   0  0  0  0  0  0  0  0  0  0  0  0
   20.5342   -9.1989  -18.6150 C   0  0  0  0  0  0  0  0  0  0  0  0
   19.3637   -8.7309  -18.4778 O   0  0  0  0  0  0  0  0  0  0  0  0
   16.4434  -13.5696  -15.9847 O   0  0  0  0  0  0  0  0  0  0  0  0
   17.5294  -12.7010  -15.7839 C   0  0  0  0  0  0  0  0  0  0  0  0
   17.4572  -11.6837  -14.8638 C   0  0  0  0  0  0  0  0  0  0  0  0
   18.5431  -10.8270  -14.6733 C   0  0  0  0  0  0  0  0  0  0  0  0
   19.7002  -10.9877  -15.4022 C   0  0  0  0  0  0  0  0  0  0  0  0
   20.8334  -10.0868  -15.1928 C   0  0  0  0  0  0  0  0  0  0  0  0
   20.8789   -8.9024  -16.1362 C   0  0  2  0  0  0  0  0  0  0  0  0
   21.3100   -9.3396  -17.4534 N   0  0  0  0  0  0  0  0  0  0  0  0
   21.7604   -7.8773  -15.5677 C   0  0  0  0  0  0  0  0  0  0  0  0
   23.0019   -8.0233  -15.7063 O   0  0  0  0  0  0  0  0  0  0  0  0
   19.7372  -12.0177  -16.3155 C   0  0  0  0  0  0  0  0  0  0  0  0
   18.6712  -12.8642  -16.5073 C   0  0  0  0  0  0  0  0  0  0  0  0
   19.6739   -1.9475  -18.9584 O   0  0  0  0  0  0  0  0  0  0  0  0
   20.4743   -2.7398  -18.1423 C   0  0  0  0  0  0  0  0  0  0  0  0
   20.7890   -4.0203  -18.4743 C   0  0  0  0  0  0  0  0  0  0  0  0
   21.5945   -4.7879  -17.6329 C   0  0  0  0  0  0  0  0  0  0  0  0
   22.0891   -4.2740  -16.4524 C   0  0  0  0  0  0  0  0  0  0  0  0
   22.9467   -5.0222  -15.5162 C   0  0  0  0  0  0  0  0  0  0  0  0
   22.1949   -5.6780  -14.3906 C   0  0  2  0  0  0  0  0  0  0  0  0
   21.3168   -6.7312  -14.8719 N   0  0  0  0  0  0  0  0  0  0  0  0
   21.3388   -4.6536  -13.7444 C   0  0  0  0  0  0  0  0  0  0  0  0
   21.8763   -3.6080  -12.9757 O   0  0  0  0  0  0  0  0  0  0  0  0
   21.7584   -2.9691  -16.1308 C   0  0  0  0  0  0  0  0  0  0  0  0
   20.9667   -2.2333  -16.9703 C   0  0  0  0  0  0  0  0  0  0  0  0
   20.0753   -4.6456  -13.8366 O   0  0  0  0  0  0  0  0  0  0  0  0
  2  3  1  0
  2  1  1  6
  4  5  1  6
  4  2  1  0
  6  4  1  0
  7  6  2  0
  9 10  2  0
  9  8  1  0
 11 10  1  0
 12 11  2  0
 13 12  1  0
 14 13  1  1
 14 16  1  0
 14 15  1  0
 15  6  1  0
 16 17  2  0
 18 12  1  0
 18 19  2  0
 19  9  1  0
 21 22  2  0
 21 20  1  0
 23 22  1  0
 24 23  2  0
 26 25  1  6
 25 24  1  0
 27 26  1  0
 27 16  1  0
 28 29  1  0
 28 26  1  0
 30 24  1  0
 30 31  2  0
 31 21  1  0
 32 28  2  0
M  END
$$$$
