TYY.pdb
     RDKit          3D

 32 33  0  0  1  0  0  0  0  0999 V2000
   22.1211  -10.1731  -19.0394 C   0  0  0  0  0  0  0  0  0  0  0  0
   20.6188   -9.9905  -18.9689 C   0  0  1  0  0  0  0  0  0  0  0  0
   20.0621  -10.6133  -20.0850 O   0  0  0  0  0  0  0  0  0  0  0  0
   20.1504  -10.6205  -17.6844 C   0  0  2  0  0  0  0  0  0  0  0  0
   19.0808  -11.5309  -17.9565 N   0  0  0  0  0  0  0  0  0  0  0  0
   19.8334   -9.6491  -16.6299 C   0  0  0  0  0  0  0  0  0  0  0  0
   18.6362   -9.2365  -16.5620 O   0  0  0  0  0  0  0  0  0  0  0  0
   19.4898   -4.9642   -9.1802 O   0  0  0  0  0  0  0  0  0  0  0  0
   19.8714   -5.8237  -10.2242 C   0  0  0  0  0  0  0  0  0  0  0  0
   21.0383   -5.6145  -10.9180 C   0  0  0  0  0  0  0  0  0  0  0  0
   21.4068   -6.4756  -11.9535 C   0  0  0  0  0  0  0  0  0  0  0  0
   20.6092   -7.5449  -12.2946 C   0  0  0  0  0  0  0  0  0  0  0  0
   21.0058   -8.4430  -13.3789 C   0  0  0  0  0  0  0  0  0  0  0  0
   20.4143   -8.0982  -14.7303 C   0  0  2  0  0  0  0  0  0  0  0  0
   20.7431   -9.1383  -15.6905 N   0  0  0  0  0  0  0  0  0  0  0  0
   20.9062   -6.7788  -15.1402 C   0  0  0  0  0  0  0  0  0  0  0  0
   22.1140   -6.6772  -15.4762 O   0  0  0  0  0  0  0  0  0  0  0  0
   19.4470   -7.7240  -11.5779 C   0  0  0  0  0  0  0  0  0  0  0  0
   19.0791   -6.8795  -10.5576 C   0  0  0  0  0  0  0  0  0  0  0  0
   14.4551   -2.7377  -14.7008 O   0  0  0  0  0  0  0  0  0  0  0  0
   15.7281   -3.0131  -15.1887 C   0  0  0  0  0  0  0  0  0  0  0  0
   16.0332   -4.2102  -15.7571 C   0  0  0  0  0  0  0  0  0  0  0  0
   17.3203   -4.4539  -16.2366 C   0  0  0  0  0  0  0  0  0  0  0  0
   18.3093   -3.4966  -16.1482 C   0  0  0  0  0  0  0  0  0  0  0  0
   19.6883   -3.6804  -16.6344 C   0  0  0  0  0  0  0  0  0  0  0  0
   20.6113   -4.3117  -15.6284 C   0  0  2  0  0  0  0  0  0  0  0  0
   20.1205   -5.6062  -15.1863 N   0  0  0  0  0  0  0  0  0  0  0  0
   20.6691   -3.4330  -14.4350 C   0  0  0  0  0  0  0  0  0  0  0  0
   21.3429   -2.2006  -14.4470 O   0  0  0  0  0  0  0  0  0  0  0  0
   17.9806   -2.2845  -15.5667 C   0  0  0  0  0  0  0  0  0  0  0  0
   16.7118   -2.0658  -15.1026 C   0  0  0  0  0  0  0  0  0  0  0  0
   20.1222   -3.7249  -13.3302 O   0  0  0  0  0  0  0  0  0  0  0  0
  2  3  1  0
  2  1  1  6
  4  5  1  6
  4  2  1  0
  6  4  1  0
  7  6  2  0
  9 10  2  0
  9  8  1  0
 11 10  1  0
 12 11  2  0
 13 12  1  0
 14 13  1  1
 14 16  1  0
 14 15  1  0
 15  6  1  0
 16 17  2  0
 18 12  1  0
 18 19  2  0
 19  9  1  0
 21 22  2  0
 21 20  1  0
 23 22  1  0
 24 23  2  0
 26 25  1  6
 25 24  1  0
 27 26  1  0
 27 16  1  0
 28 29  1  0
 28 26  1  0
 30 24  1  0
 30 31  2  0
 31 21  1  0
 32 28  2  0
M  END
$$$$
