EKG.pdb
     RDKit          3D

 23 22  0  0  1  0  0  0  0  0999 V2000
   27.3356  -23.6362  -16.6369 N   0  0  0  0  0  0  0  0  0  0  0  0
   26.7451  -22.3607  -16.4483 C   0  0  1  0  0  0  0  0  0  0  0  0
   26.0356  -21.8825  -17.6643 C   0  0  0  0  0  0  0  0  0  0  0  0
   26.8114  -21.1397  -18.6759 C   0  0  0  0  0  0  0  0  0  0  0  0
   26.0939  -20.4304  -19.7283 C   0  0  0  0  0  0  0  0  0  0  0  0
   26.5356  -20.2312  -20.8616 O   0  0  0  0  0  0  0  0  0  0  0  0
   25.8543  -22.2840  -15.2348 C   0  0  0  0  0  0  0  0  0  0  0  0
   24.8029  -22.9799  -15.2067 O   0  0  0  0  0  0  0  0  0  0  0  0
   24.7946  -19.9078  -19.4995 O   0  0  0  0  0  0  0  0  0  0  0  0
   26.1161  -21.4786  -14.1115 N   0  0  0  0  0  0  0  0  0  0  0  0
   25.1994  -21.4734  -12.9372 C   0  0  1  0  0  0  0  0  0  0  0  0
   25.9906  -21.0172  -11.7407 C   0  0  0  0  0  0  0  0  0  0  0  0
   25.1494  -20.9953  -10.5208 C   0  0  0  0  0  0  0  0  0  0  0  0
   25.9404  -20.5415   -9.2939 C   0  0  0  0  0  0  0  0  0  0  0  0
   25.0649  -20.5071   -8.0638 C   0  0  0  0  0  0  0  0  0  0  0  0
   25.8656  -19.9547   -6.9834 N   0  0  0  0  0  0  0  0  0  0  0  0
   24.0367  -20.6652  -13.2863 C   0  0  0  0  0  0  0  0  0  0  0  0
   24.2211  -19.6416  -14.0299 O   0  0  0  0  0  0  0  0  0  0  0  0
   22.6909  -20.8889  -12.8916 N   0  0  0  0  0  0  0  0  0  0  0  0
   21.6084  -20.0016  -13.2843 C   0  0  0  0  0  0  0  0  0  0  0  0
   20.5051  -20.7323  -13.9379 C   0  0  0  0  0  0  0  0  0  0  0  0
   20.7448  -21.4346  -14.9400 O   0  0  0  0  0  0  0  0  0  0  0  0
   19.2157  -20.6536  -13.4624 O   0  0  0  0  0  0  0  0  0  0  0  0
  2  7  1  0
  2  1  1  6
  3  2  1  0
  4  3  1  0
  5  4  1  0
  6  5  2  0
  7  8  2  0
  9  5  1  0
 10 11  1  0
 10  7  1  0
 11 12  1  1
 12 13  1  0
 14 13  1  0
 14 15  1  0
 16 15  1  0
 17 11  1  0
 18 17  2  0
 19 17  1  0
 20 21  1  0
 20 19  1  0
 21 23  1  0
 22 21  2  0
M  END
$$$$
