EKG.pdb
     RDKit          3D

 23 22  0  0  1  0  0  0  0  0999 V2000
   19.9166  -10.7936  -19.7403 N   0  0  0  0  0  0  0  0  0  0  0  0
   20.3153  -10.4580  -18.4213 C   0  0  1  0  0  0  0  0  0  0  0  0
   21.7830  -10.2469  -18.3123 C   0  0  0  0  0  0  0  0  0  0  0  0
   22.6772  -11.2368  -18.9426 C   0  0  0  0  0  0  0  0  0  0  0  0
   24.1130  -10.9839  -18.9446 C   0  0  0  0  0  0  0  0  0  0  0  0
   24.9440  -11.6846  -19.5258 O   0  0  0  0  0  0  0  0  0  0  0  0
   19.5549   -9.2927  -17.8416 C   0  0  0  0  0  0  0  0  0  0  0  0
   19.1261   -8.3979  -18.6200 O   0  0  0  0  0  0  0  0  0  0  0  0
   24.6581   -9.8728  -18.2504 O   0  0  0  0  0  0  0  0  0  0  0  0
   19.2836   -9.1291  -16.4710 N   0  0  0  0  0  0  0  0  0  0  0  0
   18.4301   -8.0096  -15.9832 C   0  0  1  0  0  0  0  0  0  0  0  0
   17.1552   -8.6051  -15.4487 C   0  0  0  0  0  0  0  0  0  0  0  0
   16.2213   -7.5479  -14.9944 C   0  0  0  0  0  0  0  0  0  0  0  0
   14.9387   -8.1373  -14.4077 C   0  0  0  0  0  0  0  0  0  0  0  0
   14.0509   -7.0545  -13.8420 C   0  0  0  0  0  0  0  0  0  0  0  0
   12.8841   -7.7103  -13.2743 N   0  0  0  0  0  0  0  0  0  0  0  0
   19.2211   -7.2283  -15.0392 C   0  0  0  0  0  0  0  0  0  0  0  0
   19.7586   -7.8439  -14.0559 O   0  0  0  0  0  0  0  0  0  0  0  0
   19.4738   -5.8316  -15.0868 N   0  0  0  0  0  0  0  0  0  0  0  0
   20.1589   -5.1291  -14.0141 C   0  0  0  0  0  0  0  0  0  0  0  0
   21.6262   -5.1953  -14.1597 C   0  0  0  0  0  0  0  0  0  0  0  0
   22.1195   -5.8565  -15.0949 O   0  0  0  0  0  0  0  0  0  0  0  0
   22.4613   -4.5409  -13.2827 O   0  0  0  0  0  0  0  0  0  0  0  0
  2  7  1  0
  2  1  1  6
  3  2  1  0
  4  3  1  0
  5  4  1  0
  6  5  2  0
  7  8  2  0
  9  5  1  0
 10 11  1  0
 10  7  1  0
 11 12  1  1
 12 13  1  0
 14 13  1  0
 14 15  1  0
 16 15  1  0
 17 11  1  0
 18 17  2  0
 19 17  1  0
 20 21  1  0
 20 19  1  0
 21 23  1  0
 22 21  2  0
M  END
$$$$
