EKG.pdb
     RDKit          3D

 23 22  0  0  1  0  0  0  0  0999 V2000
   27.2986  -19.5792  -16.1863 N   0  0  0  0  0  0  0  0  0  0  0  0
   26.8284  -20.9171  -16.2003 C   0  0  1  0  0  0  0  0  0  0  0  0
   27.9302  -21.9036  -16.0477 C   0  0  0  0  0  0  0  0  0  0  0  0
   29.1184  -21.7590  -16.9105 C   0  0  0  0  0  0  0  0  0  0  0  0
   29.1886  -22.5343  -18.1431 C   0  0  0  0  0  0  0  0  0  0  0  0
   29.4020  -23.7472  -18.1932 O   0  0  0  0  0  0  0  0  0  0  0  0
   25.7255  -21.1773  -15.2062 C   0  0  0  0  0  0  0  0  0  0  0  0
   25.1947  -22.3207  -15.1716 O   0  0  0  0  0  0  0  0  0  0  0  0
   29.0081  -21.9129  -19.4060 O   0  0  0  0  0  0  0  0  0  0  0  0
   25.2379  -20.2201  -14.2980 N   0  0  0  0  0  0  0  0  0  0  0  0
   24.0250  -20.4871  -13.4751 C   0  0  1  0  0  0  0  0  0  0  0  0
   24.4124  -20.3415  -12.0279 C   0  0  0  0  0  0  0  0  0  0  0  0
   23.3551  -20.8730  -11.1358 C   0  0  0  0  0  0  0  0  0  0  0  0
   23.6846  -20.6372   -9.6618 C   0  0  0  0  0  0  0  0  0  0  0  0
   22.5475  -21.0803   -8.7721 C   0  0  0  0  0  0  0  0  0  0  0  0
   22.9695  -20.8635   -7.3978 N   0  0  0  0  0  0  0  0  0  0  0  0
   22.9647  -19.6053  -13.9496 C   0  0  0  0  0  0  0  0  0  0  0  0
   23.0402  -18.3644  -13.6511 O   0  0  0  0  0  0  0  0  0  0  0  0
   21.8330  -19.9707  -14.7261 N   0  0  0  0  0  0  0  0  0  0  0  0
   20.5348  -20.2385  -14.1291 C   0  0  0  0  0  0  0  0  0  0  0  0
   20.1349  -21.6503  -14.2876 C   0  0  0  0  0  0  0  0  0  0  0  0
   19.7353  -22.0525  -15.3984 O   0  0  0  0  0  0  0  0  0  0  0  0
   20.1945  -22.5325  -13.2327 O   0  0  0  0  0  0  0  0  0  0  0  0
  2  7  1  0
  2  1  1  1
  3  2  1  0
  4  3  1  0
  5  4  1  0
  6  5  2  0
  7  8  2  0
  9  5  1  0
 10 11  1  0
 10  7  1  0
 11 12  1  1
 12 13  1  0
 14 13  1  0
 14 15  1  0
 16 15  1  0
 17 11  1  0
 18 17  2  0
 19 17  1  0
 20 21  1  0
 20 19  1  0
 21 23  1  0
 22 21  2  0
M  END
$$$$
