EKG.pdb
     RDKit          3D

 23 22  0  0  1  0  0  0  0  0999 V2000
   27.6849  -19.4653  -15.3991 N   0  0  0  0  0  0  0  0  0  0  0  0
   26.8873  -19.9591  -16.4626 C   0  0  1  0  0  0  0  0  0  0  0  0
   27.4453  -21.2031  -17.0555 C   0  0  0  0  0  0  0  0  0  0  0  0
   28.4888  -21.9255  -16.3030 C   0  0  0  0  0  0  0  0  0  0  0  0
   29.0385  -23.1521  -16.8675 C   0  0  0  0  0  0  0  0  0  0  0  0
   29.8935  -23.8504  -16.3192 O   0  0  0  0  0  0  0  0  0  0  0  0
   25.4366  -20.1370  -16.0938 C   0  0  0  0  0  0  0  0  0  0  0  0
   24.6618  -20.6903  -16.9209 O   0  0  0  0  0  0  0  0  0  0  0  0
   28.6039  -23.6317  -18.1303 O   0  0  0  0  0  0  0  0  0  0  0  0
   24.8752  -19.7239  -14.8719 N   0  0  0  0  0  0  0  0  0  0  0  0
   23.4473  -19.9995  -14.5482 C   0  0  1  0  0  0  0  0  0  0  0  0
   23.3654  -20.3283  -13.0817 C   0  0  0  0  0  0  0  0  0  0  0  0
   22.4875  -21.4985  -12.8448 C   0  0  0  0  0  0  0  0  0  0  0  0
   21.0427  -21.2170  -13.2572 C   0  0  0  0  0  0  0  0  0  0  0  0
   20.1724  -22.4351  -13.0581 C   0  0  0  0  0  0  0  0  0  0  0  0
   18.8327  -22.0808  -13.4976 N   0  0  0  0  0  0  0  0  0  0  0  0
   22.6625  -18.8547  -14.9961 C   0  0  0  0  0  0  0  0  0  0  0  0
   23.0791  -17.6861  -14.6869 O   0  0  0  0  0  0  0  0  0  0  0  0
   21.4637  -18.8856  -15.7570 N   0  0  0  0  0  0  0  0  0  0  0  0
   20.7759  -17.6741  -16.1725 C   0  0  0  0  0  0  0  0  0  0  0  0
   19.5293  -17.9705  -16.9050 C   0  0  0  0  0  0  0  0  0  0  0  0
   19.2167  -19.1573  -17.1265 O   0  0  0  0  0  0  0  0  0  0  0  0
   18.7043  -16.9619  -17.3486 O   0  0  0  0  0  0  0  0  0  0  0  0
  2  7  1  0
  2  1  1  1
  3  2  1  0
  4  3  1  0
  5  4  1  0
  6  5  2  0
  7  8  2  0
  9  5  1  0
 10 11  1  0
 10  7  1  0
 11 12  1  1
 12 13  1  0
 14 13  1  0
 14 15  1  0
 16 15  1  0
 17 11  1  0
 18 17  2  0
 19 17  1  0
 20 21  1  0
 20 19  1  0
 21 23  1  0
 22 21  2  0
M  END
$$$$
