EKG.pdb
     RDKit          3D

 23 22  0  0  1  0  0  0  0  0999 V2000
   17.2710  -11.7835  -17.8893 N   0  0  0  0  0  0  0  0  0  0  0  0
   17.2683  -11.3028  -16.5551 C   0  0  1  0  0  0  0  0  0  0  0  0
   17.9252  -12.2478  -15.6139 C   0  0  0  0  0  0  0  0  0  0  0  0
   17.4152  -13.6307  -15.5470 C   0  0  0  0  0  0  0  0  0  0  0  0
   18.0722  -14.5783  -14.6548 C   0  0  0  0  0  0  0  0  0  0  0  0
   19.0822  -14.3290  -13.9940 O   0  0  0  0  0  0  0  0  0  0  0  0
   17.8375   -9.9141  -16.4151 C   0  0  0  0  0  0  0  0  0  0  0  0
   18.7052   -9.5257  -17.2438 O   0  0  0  0  0  0  0  0  0  0  0  0
   17.5668  -15.8938  -14.4893 O   0  0  0  0  0  0  0  0  0  0  0  0
   17.4635   -9.0039  -15.4098 N   0  0  0  0  0  0  0  0  0  0  0  0
   17.8806   -7.5750  -15.4707 C   0  0  1  0  0  0  0  0  0  0  0  0
   16.6617   -6.7307  -15.2118 C   0  0  0  0  0  0  0  0  0  0  0  0
   15.8595   -6.5581  -16.4459 C   0  0  0  0  0  0  0  0  0  0  0  0
   14.3758   -6.3607  -16.1355 C   0  0  0  0  0  0  0  0  0  0  0  0
   13.5630   -6.2585  -17.4043 C   0  0  0  0  0  0  0  0  0  0  0  0
   12.1616   -6.3086  -17.0205 N   0  0  0  0  0  0  0  0  0  0  0  0
   18.9942   -7.3987  -14.5455 C   0  0  0  0  0  0  0  0  0  0  0  0
   19.0115   -8.1154  -13.4869 O   0  0  0  0  0  0  0  0  0  0  0  0
   20.0899   -6.5064  -14.6874 N   0  0  0  0  0  0  0  0  0  0  0  0
   21.1386   -6.3985  -13.6863 C   0  0  0  0  0  0  0  0  0  0  0  0
   22.2671   -5.5713  -14.1560 C   0  0  0  0  0  0  0  0  0  0  0  0
   23.1673   -5.2518  -13.3543 O   0  0  0  0  0  0  0  0  0  0  0  0
   22.3455   -5.1453  -15.4626 O   0  0  0  0  0  0  0  0  0  0  0  0
  2  7  1  0
  2  1  1  6
  3  2  1  0
  4  3  1  0
  5  4  1  0
  6  5  2  0
  7  8  2  0
  9  5  1  0
 10 11  1  0
 10  7  1  0
 11 12  1  1
 12 13  1  0
 14 13  1  0
 14 15  1  0
 16 15  1  0
 17 11  1  0
 18 17  2  0
 19 17  1  0
 20 21  1  0
 20 19  1  0
 21 23  1  0
 22 21  2  0
M  END
$$$$
