EKG.pdb
     RDKit          3D

 23 22  0  0  1  0  0  0  0  0999 V2000
   13.1849  -10.1571  -10.0974 N   0  0  0  0  0  0  0  0  0  0  0  0
   14.5739   -9.8786  -10.1628 C   0  0  1  0  0  0  0  0  0  0  0  0
   15.2238  -10.5234  -11.3343 C   0  0  0  0  0  0  0  0  0  0  0  0
   15.1388  -11.9913  -11.4568 C   0  0  0  0  0  0  0  0  0  0  0  0
   15.7671  -12.6370  -12.6030 C   0  0  0  0  0  0  0  0  0  0  0  0
   16.8890  -13.1472  -12.5879 O   0  0  0  0  0  0  0  0  0  0  0  0
   14.8954   -8.4071  -10.1057 C   0  0  0  0  0  0  0  0  0  0  0  0
   14.2574   -7.6153  -10.8517 O   0  0  0  0  0  0  0  0  0  0  0  0
   15.0970  -12.7187  -13.8511 O   0  0  0  0  0  0  0  0  0  0  0  0
   15.8723   -7.8433   -9.2650 N   0  0  0  0  0  0  0  0  0  0  0  0
   16.2438   -6.4046   -9.3728 C   0  0  1  0  0  0  0  0  0  0  0  0
   15.6766   -5.6941   -8.1732 C   0  0  0  0  0  0  0  0  0  0  0  0
   14.2493   -5.3530   -8.3800 C   0  0  0  0  0  0  0  0  0  0  0  0
   13.6612   -4.6179   -7.1756 C   0  0  0  0  0  0  0  0  0  0  0  0
   12.1900   -4.3395   -7.3729 C   0  0  0  0  0  0  0  0  0  0  0  0
   11.7245   -3.6363   -6.1886 N   0  0  0  0  0  0  0  0  0  0  0  0
   17.6910   -6.3320   -9.5394 C   0  0  0  0  0  0  0  0  0  0  0  0
   18.4159   -6.3499   -8.4864 O   0  0  0  0  0  0  0  0  0  0  0  0
   18.4070   -6.2458  -10.7629 N   0  0  0  0  0  0  0  0  0  0  0  0
   19.8524   -6.0973  -10.8082 C   0  0  0  0  0  0  0  0  0  0  0  0
   20.3892   -6.3306  -12.1632 C   0  0  0  0  0  0  0  0  0  0  0  0
   19.6075   -6.6255  -13.0890 O   0  0  0  0  0  0  0  0  0  0  0  0
   21.7368   -6.2291  -12.4250 O   0  0  0  0  0  0  0  0  0  0  0  0
  2  7  1  0
  2  1  1  6
  3  2  1  0
  4  3  1  0
  5  4  1  0
  6  5  2  0
  7  8  2  0
  9  5  1  0
 10 11  1  0
 10  7  1  0
 11 12  1  1
 12 13  1  0
 14 13  1  0
 14 15  1  0
 16 15  1  0
 17 11  1  0
 18 17  2  0
 19 17  1  0
 20 21  1  0
 20 19  1  0
 21 23  1  0
 22 21  2  0
M  END
$$$$
