EKG.pdb
     RDKit          3D

 23 22  0  0  1  0  0  0  0  0999 V2000
   20.3879  -12.8016  -17.1166 N   0  0  0  0  0  0  0  0  0  0  0  0
   19.8101  -11.5644  -17.4997 C   0  0  1  0  0  0  0  0  0  0  0  0
   18.4540  -11.3722  -16.9211 C   0  0  0  0  0  0  0  0  0  0  0  0
   18.3067  -11.4424  -15.4547 C   0  0  0  0  0  0  0  0  0  0  0  0
   17.0070  -11.1444  -14.8653 C   0  0  0  0  0  0  0  0  0  0  0  0
   16.0139  -10.7952  -15.5063 O   0  0  0  0  0  0  0  0  0  0  0  0
   20.6934  -10.3757  -17.2191 C   0  0  0  0  0  0  0  0  0  0  0  0
   21.6046  -10.4853  -16.3541 O   0  0  0  0  0  0  0  0  0  0  0  0
   16.8022  -11.2432  -13.4646 O   0  0  0  0  0  0  0  0  0  0  0  0
   20.5730   -9.1315  -17.8643 N   0  0  0  0  0  0  0  0  0  0  0  0
   21.5586   -8.0405  -17.6234 C   0  0  1  0  0  0  0  0  0  0  0  0
   21.3342   -6.9816  -18.6692 C   0  0  0  0  0  0  0  0  0  0  0  0
   22.3700   -5.9246  -18.5900 C   0  0  0  0  0  0  0  0  0  0  0  0
   22.1701   -4.8525  -19.6611 C   0  0  0  0  0  0  0  0  0  0  0  0
   23.2182   -3.7706  -19.5509 C   0  0  0  0  0  0  0  0  0  0  0  0
   23.0333   -2.8782  -20.6835 N   0  0  0  0  0  0  0  0  0  0  0  0
   21.4178   -7.6148  -16.2356 C   0  0  0  0  0  0  0  0  0  0  0  0
   20.2366   -7.4221  -15.7859 O   0  0  0  0  0  0  0  0  0  0  0  0
   22.4631   -7.3875  -15.3013 N   0  0  0  0  0  0  0  0  0  0  0  0
   22.2034   -7.0075  -13.9223 C   0  0  0  0  0  0  0  0  0  0  0  0
   22.1020   -5.5437  -13.7626 C   0  0  0  0  0  0  0  0  0  0  0  0
   22.2407   -4.8080  -14.7599 O   0  0  0  0  0  0  0  0  0  0  0  0
   21.8571   -4.9744  -12.5335 O   0  0  0  0  0  0  0  0  0  0  0  0
  2  7  1  0
  2  1  1  1
  3  2  1  0
  4  3  1  0
  5  4  1  0
  6  5  2  0
  7  8  2  0
  9  5  1  0
 10 11  1  0
 10  7  1  0
 11 12  1  6
 12 13  1  0
 14 13  1  0
 14 15  1  0
 16 15  1  0
 17 11  1  0
 18 17  2  0
 19 17  1  0
 20 21  1  0
 20 19  1  0
 21 23  1  0
 22 21  2  0
M  END
$$$$
