DDY.pdb
     RDKit          3D

 29 29  0  0  1  0  0  0  0  0999 V2000
   10.2604  -16.8565   17.9364 N   0  0  0  0  0  0  0  0  0  0  0  0
    8.9836  -17.0434   18.5846 C   0  0  1  0  0  0  0  0  0  0  0  0
    8.0710  -17.9976   17.8574 C   0  0  0  0  0  0  0  0  0  0  0  0
    8.4315  -18.1322   16.4294 C   0  0  0  0  0  0  0  0  0  0  0  0
    7.5125  -18.3094   15.5939 O   0  0  0  0  0  0  0  0  0  0  0  0
    9.2220  -17.4703   19.9833 C   0  0  0  0  0  0  0  0  0  0  0  0
    8.2924  -17.7408   20.7922 O   0  0  0  0  0  0  0  0  0  0  0  0
    9.7300  -18.0730   15.9602 O   0  0  0  0  0  0  0  0  0  0  0  0
   10.5584  -17.5822   20.4428 N   0  0  0  0  0  0  0  0  0  0  0  0
   10.8322  -18.0099   21.7917 C   0  0  1  0  0  0  0  0  0  0  0  0
   12.3107  -18.3144   21.8754 C   0  0  0  0  0  0  0  0  0  0  0  0
   12.5469  -19.4945   20.9882 C   0  0  0  0  0  0  0  0  0  0  0  0
   11.7129  -20.4312   21.0414 O   0  0  0  0  0  0  0  0  0  0  0  0
   10.4231  -16.9378   22.7186 C   0  0  0  0  0  0  0  0  0  0  0  0
   11.1046  -15.8627   22.7945 O   0  0  0  0  0  0  0  0  0  0  0  0
   13.6178  -19.6109   20.1230 O   0  0  0  0  0  0  0  0  0  0  0  0
    7.3566  -12.9044   18.9950 O   0  0  0  0  0  0  0  0  0  0  0  0
    7.4312  -13.4834   20.2656 C   0  0  0  0  0  0  0  0  0  0  0  0
    8.2409  -12.9617   21.2502 C   0  0  0  0  0  0  0  0  0  0  0  0
    8.3043  -13.5444   22.4990 C   0  0  0  0  0  0  0  0  0  0  0  0
    7.5761  -14.6624   22.8315 C   0  0  0  0  0  0  0  0  0  0  0  0
    7.6220  -15.3221   24.1475 C   0  0  0  0  0  0  0  0  0  0  0  0
    8.9567  -15.9477   24.4884 C   0  0  2  0  0  0  0  0  0  0  0  0
    9.2918  -17.0089   23.5621 N   0  0  0  0  0  0  0  0  0  0  0  0
    8.8701  -16.5267   25.8392 C   0  0  0  0  0  0  0  0  0  0  0  0
    8.6540  -15.6432   26.9101 O   0  0  0  0  0  0  0  0  0  0  0  0
    6.7645  -15.1763   21.8299 C   0  0  0  0  0  0  0  0  0  0  0  0
    6.6942  -14.5980   20.5735 C   0  0  0  0  0  0  0  0  0  0  0  0
    8.9787  -17.7608   26.0752 O   0  0  0  0  0  0  0  0  0  0  0  0
  2  1  1  6
  2  3  1  0
  2  6  1  0
  3  4  1  0
  4  5  2  0
  4  8  1  0
  6  7  2  0
  9  6  1  0
  9 10  1  0
 10 11  1  6
 12 11  1  0
 13 12  2  0
 14 10  1  0
 14 15  2  0
 16 12  1  0
 18 19  2  0
 18 17  1  0
 20 19  1  0
 21 20  2  0
 22 21  1  0
 23 24  1  0
 23 22  1  6
 24 14  1  0
 25 23  1  0
 26 25  1  0
 27 21  1  0
 27 28  2  0
 28 18  1  0
 29 25  2  0
M  END
$$$$
