DDY.pdb
     RDKit          3D

 29 29  0  0  1  0  0  0  0  0999 V2000
   12.6213  -16.4385   17.0944 N   0  0  0  0  0  0  0  0  0  0  0  0
   13.0461  -16.2011   18.4540 C   0  0  1  0  0  0  0  0  0  0  0  0
   13.5989  -14.8174   18.6811 C   0  0  0  0  0  0  0  0  0  0  0  0
   14.8965  -14.6184   17.9998 C   0  0  0  0  0  0  0  0  0  0  0  0
   15.3274  -13.4483   17.8623 O   0  0  0  0  0  0  0  0  0  0  0  0
   11.9121  -16.4949   19.3612 C   0  0  0  0  0  0  0  0  0  0  0  0
   10.7277  -16.1268   19.1300 O   0  0  0  0  0  0  0  0  0  0  0  0
   15.6656  -15.6538   17.5036 O   0  0  0  0  0  0  0  0  0  0  0  0
   12.1627  -17.2251   20.5503 N   0  0  0  0  0  0  0  0  0  0  0  0
   11.0681  -17.6933   21.3626 C   0  0  1  0  0  0  0  0  0  0  0  0
   11.5079  -18.9887   22.0062 C   0  0  0  0  0  0  0  0  0  0  0  0
   11.3842  -20.0434   20.9535 C   0  0  0  0  0  0  0  0  0  0  0  0
   12.4351  -20.6342   20.6038 O   0  0  0  0  0  0  0  0  0  0  0  0
   10.7387  -16.6530   22.3553 C   0  0  0  0  0  0  0  0  0  0  0  0
   11.6708  -16.0138   22.9457 O   0  0  0  0  0  0  0  0  0  0  0  0
   10.1930  -20.4007   20.3516 O   0  0  0  0  0  0  0  0  0  0  0  0
    8.2248  -12.4397   17.8854 O   0  0  0  0  0  0  0  0  0  0  0  0
    8.1661  -12.9081   19.2016 C   0  0  0  0  0  0  0  0  0  0  0  0
    8.8735  -12.3017   20.2159 C   0  0  0  0  0  0  0  0  0  0  0  0
    8.8059  -12.7755   21.5097 C   0  0  0  0  0  0  0  0  0  0  0  0
    8.0416  -13.8637   21.8599 C   0  0  0  0  0  0  0  0  0  0  0  0
    7.9493  -14.4087   23.2250 C   0  0  0  0  0  0  0  0  0  0  0  0
    9.1482  -15.2246   23.6562 C   0  0  2  0  0  0  0  0  0  0  0  0
    9.4215  -16.2933   22.7184 N   0  0  0  0  0  0  0  0  0  0  0  0
    8.8565  -15.8269   24.9675 C   0  0  0  0  0  0  0  0  0  0  0  0
    8.6990  -14.9568   26.0595 O   0  0  0  0  0  0  0  0  0  0  0  0
    7.3340  -14.4639   20.8279 C   0  0  0  0  0  0  0  0  0  0  0  0
    7.3956  -13.9950   19.5262 C   0  0  0  0  0  0  0  0  0  0  0  0
    8.7426  -17.0693   25.1524 O   0  0  0  0  0  0  0  0  0  0  0  0
  2  1  1  6
  2  3  1  0
  2  6  1  0
  3  4  1  0
  4  5  2  0
  4  8  1  0
  6  7  2  0
  9  6  1  0
  9 10  1  0
 10 11  1  1
 12 11  1  0
 13 12  2  0
 14 10  1  0
 14 15  2  0
 16 12  1  0
 18 19  2  0
 18 17  1  0
 20 19  1  0
 21 20  2  0
 22 21  1  0
 23 24  1  0
 23 22  1  6
 24 14  1  0
 25 23  1  0
 26 25  1  0
 27 21  1  0
 27 28  2  0
 28 18  1  0
 29 25  2  0
M  END
$$$$
