DDY.pdb
     RDKit          3D

 29 29  0  0  1  0  0  0  0  0999 V2000
    6.4943  -15.5020   20.8927 N   0  0  0  0  0  0  0  0  0  0  0  0
    7.9188  -15.4544   21.1245 C   0  0  1  0  0  0  0  0  0  0  0  0
    8.5043  -14.0706   21.0049 C   0  0  0  0  0  0  0  0  0  0  0  0
    8.5064  -13.5867   19.6073 C   0  0  0  0  0  0  0  0  0  0  0  0
    8.1652  -14.3809   18.6981 O   0  0  0  0  0  0  0  0  0  0  0  0
    8.2025  -16.0580   22.4475 C   0  0  0  0  0  0  0  0  0  0  0  0
    7.4591  -15.8990   23.4543 O   0  0  0  0  0  0  0  0  0  0  0  0
    8.8646  -12.3024   19.2439 O   0  0  0  0  0  0  0  0  0  0  0  0
    9.3656  -16.8546   22.5974 N   0  0  0  0  0  0  0  0  0  0  0  0
    9.5858  -17.6025   23.8097 C   0  0  1  0  0  0  0  0  0  0  0  0
   10.5934  -18.6844   23.4937 C   0  0  0  0  0  0  0  0  0  0  0  0
    9.9181  -19.6226   22.5453 C   0  0  0  0  0  0  0  0  0  0  0  0
    8.8083  -20.0942   22.8941 O   0  0  0  0  0  0  0  0  0  0  0  0
   10.0605  -16.6767   24.8554 C   0  0  0  0  0  0  0  0  0  0  0  0
   11.0187  -15.8717   24.6105 O   0  0  0  0  0  0  0  0  0  0  0  0
   10.4396  -19.9949   21.3212 O   0  0  0  0  0  0  0  0  0  0  0  0
    5.7205  -11.5904   24.9748 O   0  0  0  0  0  0  0  0  0  0  0  0
    6.5498  -12.4320   25.7225 C   0  0  0  0  0  0  0  0  0  0  0  0
    7.7850  -12.0175   26.1689 C   0  0  0  0  0  0  0  0  0  0  0  0
    8.5923  -12.8594   26.9055 C   0  0  0  0  0  0  0  0  0  0  0  0
    8.2200  -14.1420   27.2330 C   0  0  0  0  0  0  0  0  0  0  0  0
    9.0544  -15.0767   28.0071 C   0  0  0  0  0  0  0  0  0  0  0  0
   10.1125  -15.7913   27.1955 C   0  0  2  0  0  0  0  0  0  0  0  0
    9.5172  -16.6070   26.1578 N   0  0  0  0  0  0  0  0  0  0  0  0
   10.8739  -16.6743   28.0944 C   0  0  0  0  0  0  0  0  0  0  0  0
   11.6915  -16.0651   29.0612 O   0  0  0  0  0  0  0  0  0  0  0  0
    6.9729  -14.5454   26.7770 C   0  0  0  0  0  0  0  0  0  0  0  0
    6.1556  -13.7071   26.0373 C   0  0  0  0  0  0  0  0  0  0  0  0
   10.8259  -17.9333   28.0376 O   0  0  0  0  0  0  0  0  0  0  0  0
  2  1  1  1
  2  3  1  0
  2  6  1  0
  3  4  1  0
  4  5  2  0
  4  8  1  0
  6  7  2  0
  9  6  1  0
  9 10  1  0
 10 11  1  6
 12 11  1  0
 13 12  2  0
 14 10  1  0
 14 15  2  0
 16 12  1  0
 18 19  2  0
 18 17  1  0
 20 19  1  0
 21 20  2  0
 22 21  1  0
 23 24  1  0
 23 22  1  1
 24 14  1  0
 25 23  1  0
 26 25  1  0
 27 21  1  0
 27 28  2  0
 28 18  1  0
 29 25  2  0
M  END
$$$$
