DDY.pdb
     RDKit          3D

 29 29  0  0  1  0  0  0  0  0999 V2000
   10.8235  -15.5503   20.1908 N   0  0  0  0  0  0  0  0  0  0  0  0
    9.6148  -15.0581   20.8089 C   0  0  1  0  0  0  0  0  0  0  0  0
    8.4068  -15.1234   19.9097 C   0  0  0  0  0  0  0  0  0  0  0  0
    8.3262  -16.4069   19.1793 C   0  0  0  0  0  0  0  0  0  0  0  0
    7.2647  -17.0716   19.2519 O   0  0  0  0  0  0  0  0  0  0  0  0
    9.3972  -15.7964   22.0749 C   0  0  0  0  0  0  0  0  0  0  0  0
    8.3417  -15.7006   22.7592 O   0  0  0  0  0  0  0  0  0  0  0  0
    9.3592  -16.9184   18.4170 O   0  0  0  0  0  0  0  0  0  0  0  0
   10.4219  -16.6547   22.5474 N   0  0  0  0  0  0  0  0  0  0  0  0
   10.3022  -17.2935   23.8339 C   0  0  1  0  0  0  0  0  0  0  0  0
   10.9641  -18.6485   23.7263 C   0  0  0  0  0  0  0  0  0  0  0  0
   10.0346  -19.5075   22.9301 C   0  0  0  0  0  0  0  0  0  0  0  0
    8.8730  -19.6681   23.3779 O   0  0  0  0  0  0  0  0  0  0  0  0
   10.9389  -16.4331   24.8488 C   0  0  0  0  0  0  0  0  0  0  0  0
   12.0798  -15.9113   24.6209 O   0  0  0  0  0  0  0  0  0  0  0  0
   10.3774  -20.1265   21.7434 O   0  0  0  0  0  0  0  0  0  0  0  0
    5.1976  -12.6380   26.6747 O   0  0  0  0  0  0  0  0  0  0  0  0
    6.5602  -12.9471   26.7305 C   0  0  0  0  0  0  0  0  0  0  0  0
    7.1927  -13.6096   25.7020 C   0  0  0  0  0  0  0  0  0  0  0  0
    8.5378  -13.9080   25.7716 C   0  0  0  0  0  0  0  0  0  0  0  0
    9.3158  -13.5686   26.8535 C   0  0  0  0  0  0  0  0  0  0  0  0
   10.7509  -13.8770   26.9735 C   0  0  0  0  0  0  0  0  0  0  0  0
   11.0664  -15.3511   27.1018 C   0  0  2  0  0  0  0  0  0  0  0  0
   10.3632  -16.1280   26.1026 N   0  0  0  0  0  0  0  0  0  0  0  0
   10.6296  -15.8085   28.4312 C   0  0  0  0  0  0  0  0  0  0  0  0
    9.6644  -16.8284   28.4805 O   0  0  0  0  0  0  0  0  0  0  0  0
    8.6650  -12.9010   27.8815 C   0  0  0  0  0  0  0  0  0  0  0  0
    7.3153  -12.5970   27.8203 C   0  0  0  0  0  0  0  0  0  0  0  0
   11.0761  -15.3345   29.5113 O   0  0  0  0  0  0  0  0  0  0  0  0
  2  1  1  6
  2  3  1  0
  2  6  1  0
  3  4  1  0
  4  5  2  0
  4  8  1  0
  6  7  2  0
  9  6  1  0
  9 10  1  0
 10 11  1  6
 12 11  1  0
 13 12  2  0
 14 10  1  0
 14 15  2  0
 16 12  1  0
 18 19  2  0
 18 17  1  0
 20 19  1  0
 21 20  2  0
 22 21  1  0
 23 24  1  0
 23 22  1  6
 24 14  1  0
 25 23  1  0
 26 25  1  0
 27 21  1  0
 27 28  2  0
 28 18  1  0
 29 25  2  0
M  END
$$$$
