DDY.pdb
     RDKit          3D

 29 29  0  0  1  0  0  0  0  0999 V2000
   10.9858  -16.5607   17.1442 N   0  0  0  0  0  0  0  0  0  0  0  0
    9.7442  -17.0414   17.7032 C   0  0  1  0  0  0  0  0  0  0  0  0
    9.1053  -18.1431   16.8970 C   0  0  0  0  0  0  0  0  0  0  0  0
    9.0096  -17.7981   15.4620 C   0  0  0  0  0  0  0  0  0  0  0  0
    8.4766  -16.7083   15.1424 O   0  0  0  0  0  0  0  0  0  0  0  0
    9.9866  -17.4566   19.1047 C   0  0  0  0  0  0  0  0  0  0  0  0
    9.0768  -17.8842   19.8669 O   0  0  0  0  0  0  0  0  0  0  0  0
    9.4767  -18.6121   14.4476 O   0  0  0  0  0  0  0  0  0  0  0  0
   11.3038  -17.3714   19.6221 N   0  0  0  0  0  0  0  0  0  0  0  0
   11.5750  -17.7375   20.9895 C   0  0  1  0  0  0  0  0  0  0  0  0
   13.0503  -18.0537   21.0860 C   0  0  0  0  0  0  0  0  0  0  0  0
   13.2047  -19.4740   20.6447 C   0  0  0  0  0  0  0  0  0  0  0  0
   12.3119  -20.2853   20.9919 O   0  0  0  0  0  0  0  0  0  0  0  0
   11.1790  -16.6182   21.8648 C   0  0  0  0  0  0  0  0  0  0  0  0
   11.9649  -15.6282   22.0330 O   0  0  0  0  0  0  0  0  0  0  0  0
   14.2612  -19.9383   19.8851 O   0  0  0  0  0  0  0  0  0  0  0  0
    7.7938  -12.6244   17.9720 O   0  0  0  0  0  0  0  0  0  0  0  0
    7.9353  -13.1593   19.2562 C   0  0  0  0  0  0  0  0  0  0  0  0
    9.0202  -12.8564   20.0488 C   0  0  0  0  0  0  0  0  0  0  0  0
    9.1462  -13.3922   21.3137 C   0  0  0  0  0  0  0  0  0  0  0  0
    8.2129  -14.2471   21.8513 C   0  0  0  0  0  0  0  0  0  0  0  0
    8.3135  -14.8498   23.1913 C   0  0  0  0  0  0  0  0  0  0  0  0
    9.6523  -15.4864   23.4931 C   0  0  2  0  0  0  0  0  0  0  0  0
    9.9501  -16.5519   22.5590 N   0  0  0  0  0  0  0  0  0  0  0  0
    9.6014  -16.0627   24.8469 C   0  0  0  0  0  0  0  0  0  0  0  0
    9.6509  -15.1719   25.9324 O   0  0  0  0  0  0  0  0  0  0  0  0
    7.1253  -14.5427   21.0415 C   0  0  0  0  0  0  0  0  0  0  0  0
    6.9902  -14.0093   19.7706 C   0  0  0  0  0  0  0  0  0  0  0  0
    9.5159  -17.3004   25.0732 O   0  0  0  0  0  0  0  0  0  0  0  0
  2  1  1  6
  2  3  1  0
  2  6  1  0
  3  4  1  0
  4  5  2  0
  4  8  1  0
  6  7  2  0
  9  6  1  0
  9 10  1  0
 10 11  1  6
 12 11  1  0
 13 12  2  0
 14 10  1  0
 14 15  2  0
 16 12  1  0
 18 19  2  0
 18 17  1  0
 20 19  1  0
 21 20  2  0
 22 21  1  0
 23 24  1  0
 23 22  1  6
 24 14  1  0
 25 23  1  0
 26 25  1  0
 27 21  1  0
 27 28  2  0
 28 18  1  0
 29 25  2  0
M  END
$$$$
